*SPEF "IEEE 1481-1999"
*DESIGN "TOP"
*DATE "Wed Oct 26 12:37:13 2022"
*VENDOR "SYNOPSYS INC"
*PROGRAM "Synopsys Design Compiler cmos"
*VERSION "O-2018.06-SP4"
*DESIGN_FLOW "SYNTHESIS"
*DIVIDER /
*DELIMITER :
*BUS_DELIMITER []
*T_UNIT 1.0 NS
*C_UNIT 0.0010 PF
*R_UNIT 1000.0 KOHM
*L_UNIT 1.0 HENRY

*PORTS

a\[3\] I *L 0.000e+00 *S 3.529e-03 3.511e-03 *D NBUFFX2_RVT 
a\[2\] I *L 0.000e+00 *S 3.700e-03 3.680e-03 *D NBUFFX2_RVT 
a\[1\] I *L 0.000e+00 *S 2.375e-03 2.371e-03 *D NBUFFX2_RVT 
a\[0\] I *L 0.000e+00 *S 1.205e-02 1.208e-02 *D NBUFFX2_RVT 
b\[3\] I *L 0.000e+00 *S 6.075e-03 6.065e-03 *D NBUFFX2_RVT 
b\[2\] I *L 0.000e+00 *S 5.382e-03 5.365e-03 *D NBUFFX2_RVT 
b\[1\] I *L 0.000e+00 *S 4.909e-03 4.887e-03 *D NBUFFX2_RVT 
b\[0\] I *L 0.000e+00 *S 5.248e-03 5.229e-03 *D NBUFFX2_RVT 
y\[7\] O *L 5.119e-01 *S 5.856e-03 6.719e-03 
y\[6\] O *L 5.119e-01 *S 7.390e-03 8.391e-03 
y\[5\] O *L 5.119e-01 *S 1.486e-02 1.644e-02 
y\[4\] O *L 5.119e-01 *S 4.581e-03 5.327e-03 
y\[3\] O *L 5.119e-01 *S 4.547e-03 5.291e-03 
y\[2\] O *L 5.119e-01 *S 6.717e-03 7.657e-03 
y\[1\] O *L 5.119e-01 *S 5.799e-03 6.657e-03 
y\[0\] O *L 5.119e-01 *S 5.214e-03 6.018e-03 
CLK I *L 0.000e+00 *S 0.000e+00 0.000e+00 

*R_NET a\[3\] 7.960e-01
*DRIVER a\[3\]
*CELL NBUFFX2_RVT
*C2_R1_C1 3.980e-01 1.184e-05 3.980e-01 
*LOADS
*RC PAM/a_pipe_reg_0__3_:D 7.114e-06
*END

*R_NET a\[2\] 8.363e-01
*DRIVER a\[2\]
*CELL NBUFFX2_RVT
*C2_R1_C1 4.182e-01 1.282e-05 4.182e-01 
*LOADS
*RC PAM/a_pipe_reg_0__2_:D 7.873e-06
*END

*R_NET a\[1\] 5.227e-01
*DRIVER a\[1\]
*CELL NBUFFX2_RVT
*C2_R1_C1 2.613e-01 6.415e-06 2.613e-01 
*LOADS
*RC PAM/a_pipe_reg_0__1_:D 3.270e-06
*END

*R_NET a\[0\] 3.202e+00
*DRIVER a\[0\]
*CELL NBUFFX2_RVT
*C2_R1_C1 1.601e+00 2.663e-05 1.601e+00 
*LOADS
*RC PAM/U29:A1 2.447e-05
*RC PAM/U30:A1 2.333e-05
*RC PAM/U31:A1 1.453e-05
*RC PAM/U32:A1 2.089e-05
*END

*R_NET b\[3\] 1.467e+00
*DRIVER b\[3\]
*CELL NBUFFX2_RVT
*C2_R1_C1 7.337e-01 1.754e-05 7.337e-01 
*LOADS
*RC PAM/U29:A2 7.298e-06
*RC PAM/b_pipe_reg_0__3_:D 1.271e-05
*END

*R_NET b\[2\] 1.281e+00
*DRIVER b\[2\]
*CELL NBUFFX2_RVT
*C2_R1_C1 6.405e-01 1.292e-05 6.405e-01 
*LOADS
*RC PAM/U30:A2 6.992e-06
*RC PAM/b_pipe_reg_0__2_:D 8.818e-06
*END

*R_NET b\[1\] 1.154e+00
*DRIVER b\[1\]
*CELL NBUFFX2_RVT
*C2_R1_C1 5.769e-01 9.433e-06 5.769e-01 
*LOADS
*RC PAM/U31:A2 5.902e-06
*RC PAM/b_pipe_reg_0__1_:D 5.702e-06
*END

*R_NET b\[0\] 1.245e+00
*DRIVER b\[0\]
*CELL NBUFFX2_RVT
*C2_R1_C1 6.224e-01 1.136e-05 6.224e-01 
*LOADS
*RC PAM/U32:A2 6.764e-06
*RC PAM/b_pipe_reg_0__0_:D 6.511e-06
*END

*R_NET y\[7\] 7.095e-01
*DRIVER PAM/partials_reg_3__7_:Q
*CELL DFFX1_RVT
*C2_R1_C1 3.548e-01 9.815e-06 3.548e-01 
*LOADS
*RC y\[7\] 5.670e-06
*END

*R_NET y\[6\] 9.058e-01
*DRIVER PAM/partials_reg_3__6_:Q
*CELL DFFX1_RVT
*C2_R1_C1 4.529e-01 1.446e-05 4.529e-01 
*LOADS
*RC y\[6\] 9.300e-06
*END

*R_NET y\[5\] 1.997e+00
*DRIVER PAM/partials_reg_3__5_:Q
*CELL DFFX1_RVT
*C2_R1_C1 9.987e-01 4.601e-05 9.987e-01 
*LOADS
*RC y\[5\] 4.633e-05
*END

*R_NET y\[4\] 5.463e-01
*DRIVER PAM/partials_reg_3__4_:Q
*CELL DFFX1_RVT
*C2_R1_C1 2.731e-01 6.814e-06 2.731e-01 
*LOADS
*RC y\[4\] 3.566e-06
*END

*R_NET y\[3\] 5.420e-01
*DRIVER PAM/partials_reg_3__3_:Q
*CELL DFFX1_RVT
*C2_R1_C1 2.710e-01 6.712e-06 2.710e-01 
*LOADS
*RC y\[3\] 3.503e-06
*END

*R_NET y\[2\] 8.196e-01
*DRIVER PAM/partials_reg_3__2_:Q
*CELL DFFX1_RVT
*C2_R1_C1 4.098e-01 1.238e-05 4.098e-01 
*LOADS
*RC y\[2\] 7.610e-06
*END

*R_NET y\[1\] 7.023e-01
*DRIVER PAM/partials_reg_3__1_:Q
*CELL DFFX1_RVT
*C2_R1_C1 3.511e-01 9.598e-06 3.511e-01 
*LOADS
*RC y\[1\] 5.522e-06
*END

*R_NET y\[0\] 6.273e-01
*DRIVER PAM/partials_reg_3__0_:Q
*CELL DFFX1_RVT
*C2_R1_C1 3.137e-01 8.023e-06 3.137e-01 
*LOADS
*RC y\[0\] 4.416e-06
*END

*R_NET PAM/N4 5.614e-01
*DRIVER PAM/U29:Y
*CELL AND2X1_RVT
*C2_R1_C1 2.807e-01 8.599e-06 2.807e-01 
*LOADS
*RC PAM/partials_reg_0__3_:D 4.494e-06
*END

*R_NET PAM/N5 5.995e-01
*DRIVER PAM/U30:Y
*CELL AND2X1_RVT
*C2_R1_C1 2.998e-01 9.492e-06 2.998e-01 
*LOADS
*RC PAM/partials_reg_0__2_:D 5.081e-06
*END

*R_NET PAM/N6 6.925e-01
*DRIVER PAM/U31:Y
*CELL AND2X1_RVT
*C2_R1_C1 3.462e-01 1.155e-05 3.462e-01 
*LOADS
*RC PAM/partials_reg_0__1_:D 6.541e-06
*END

*R_NET PAM/N7 8.465e-01
*DRIVER PAM/U32:Y
*CELL AND2X1_RVT
*C2_R1_C1 4.232e-01 1.475e-05 4.232e-01 
*LOADS
*RC PAM/partials_reg_0__0_:D 9.108e-06
*END

*R_NET PAM/a_pipe_2__3_ 4.146e+00
*DRIVER PAM/a_pipe_reg_2__3_:Q
*CELL DFFX1_RVT
*C2_R1_C1 2.073e+00 3.772e-05 2.073e+00 
*LOADS
*RC PAM/U11:A1 2.893e-05
*RC PAM/U12:A1 6.143e-05
*RC PAM/U13:A1 3.886e-05
*RC PAM/U15:A1 5.312e-05
*RC PAM/U33:A4 3.381e-05
*END

*R_NET PAM/a_pipe_1__3_ 9.578e-01
*DRIVER PAM/a_pipe_reg_1__3_:Q
*CELL DFFX1_RVT
*C2_R1_C1 4.789e-01 1.762e-05 4.789e-01 
*LOADS
*RC PAM/a_pipe_reg_2__3_:D 1.153e-05
*END

*R_NET PAM/a_pipe_1__2_ 4.174e+00
*DRIVER PAM/a_pipe_reg_1__2_:Q
*CELL DFFX1_RVT
*C2_R1_C1 2.087e+00 3.646e-05 2.087e+00 
*LOADS
*RC PAM/U20:A1 5.867e-05
*RC PAM/U21:A1 2.190e-05
*RC PAM/U22:A1 2.992e-05
*RC PAM/U24:A1 4.243e-05
*RC PAM/U34:A4 2.570e-05
*END

*R_NET PAM/a_pipe_0__3_ 5.350e-01
*DRIVER PAM/a_pipe_reg_0__3_:Q
*CELL DFFX1_RVT
*C2_R1_C1 2.675e-01 7.947e-06 2.675e-01 
*LOADS
*RC PAM/a_pipe_reg_1__3_:D 4.083e-06
*END

*R_NET PAM/a_pipe_0__2_ 5.782e-01
*DRIVER PAM/a_pipe_reg_0__2_:Q
*CELL DFFX1_RVT
*C2_R1_C1 2.891e-01 9.135e-06 2.891e-01 
*LOADS
*RC PAM/a_pipe_reg_1__2_:D 4.825e-06
*END

*R_NET PAM/a_pipe_0__1_ 3.457e+00
*DRIVER PAM/a_pipe_reg_0__1_:Q
*CELL DFFX1_RVT
*C2_R1_C1 1.729e+00 2.503e-05 1.729e+00 
*LOADS
*RC PAM/U3:A1 3.186e-05
*RC PAM/U5:A1 3.546e-05
*RC PAM/U6:A1 3.486e-05
*RC PAM/U8:A2 2.202e-05
*RC PAM/U35:A4 2.593e-05
*END

*R_NET PAM/b_pipe_2__3_ 8.560e-01
*DRIVER PAM/b_pipe_reg_2__3_:Q
*CELL DFFX1_RVT
*C2_R1_C1 4.280e-01 1.619e-05 4.280e-01 
*LOADS
*RC PAM/U11:A2 1.004e-05
*END

*R_NET PAM/b_pipe_2__2_ 6.125e-01
*DRIVER PAM/b_pipe_reg_2__2_:Q
*CELL DFFX1_RVT
*C2_R1_C1 3.062e-01 9.910e-06 3.062e-01 
*LOADS
*RC PAM/U12:A2 5.339e-06
*END

*R_NET PAM/b_pipe_2__1_ 6.047e-01
*DRIVER PAM/b_pipe_reg_2__1_:Q
*CELL DFFX1_RVT
*C2_R1_C1 3.023e-01 9.835e-06 3.023e-01 
*LOADS
*RC PAM/U15:A2 5.273e-06
*END

*R_NET PAM/b_pipe_2__0_ 1.443e+00
*DRIVER PAM/b_pipe_reg_2__0_:Q
*CELL DFFX1_RVT
*C2_R1_C1 7.215e-01 1.851e-05 7.215e-01 
*LOADS
*RC PAM/U13:A2 1.356e-05
*RC PAM/U33:A2 1.462e-05
*END

*R_NET PAM/b_pipe_1__3_ 1.222e+00
*DRIVER PAM/b_pipe_reg_1__3_:Q
*CELL DFFX1_RVT
*C2_R1_C1 6.109e-01 1.248e-05 6.109e-01 
*LOADS
*RC PAM/U20:A2 7.095e-06
*RC PAM/b_pipe_reg_2__3_:D 9.265e-06
*END

*R_NET PAM/b_pipe_1__2_ 1.226e+00
*DRIVER PAM/b_pipe_reg_1__2_:Q
*CELL DFFX1_RVT
*C2_R1_C1 6.130e-01 1.298e-05 6.130e-01 
*LOADS
*RC PAM/U21:A2 8.221e-06
*RC PAM/b_pipe_reg_2__2_:D 8.991e-06
*END

*R_NET PAM/b_pipe_1__1_ 1.280e+00
*DRIVER PAM/b_pipe_reg_1__1_:Q
*CELL DFFX1_RVT
*C2_R1_C1 6.399e-01 1.413e-05 6.399e-01 
*LOADS
*RC PAM/U24:A2 7.146e-06
*RC PAM/b_pipe_reg_2__1_:D 1.077e-05
*END

*R_NET PAM/b_pipe_1__0_ 2.028e+00
*DRIVER PAM/b_pipe_reg_1__0_:Q
*CELL DFFX1_RVT
*C2_R1_C1 1.014e+00 2.122e-05 1.014e+00 
*LOADS
*RC PAM/U22:A2 1.447e-05
*RC PAM/U34:A2 1.394e-05
*RC PAM/b_pipe_reg_2__0_:D 1.932e-05
*END

*R_NET PAM/b_pipe_0__3_ 1.782e+00
*DRIVER PAM/b_pipe_reg_0__3_:Q
*CELL DFFX1_RVT
*C2_R1_C1 8.909e-01 1.421e-05 8.909e-01 
*LOADS
*RC PAM/U7:A2 8.400e-06
*RC PAM/U9:A1 1.071e-05
*RC PAM/b_pipe_reg_1__3_:D 9.988e-06
*END

*R_NET PAM/b_pipe_0__2_ 1.905e+00
*DRIVER PAM/b_pipe_reg_0__2_:Q
*CELL DFFX1_RVT
*C2_R1_C1 9.527e-01 2.784e-05 9.527e-01 
*LOADS
*RC PAM/U6:A2 2.286e-05
*RC PAM/b_pipe_reg_1__2_:D 1.465e-05
*END

*R_NET PAM/b_pipe_0__1_ 1.273e+00
*DRIVER PAM/b_pipe_reg_0__1_:Q
*CELL DFFX1_RVT
*C2_R1_C1 6.366e-01 1.426e-05 6.366e-01 
*LOADS
*RC PAM/U5:A2 8.169e-06
*RC PAM/b_pipe_reg_1__1_:D 1.084e-05
*END

*R_NET PAM/b_pipe_0__0_ 2.113e+00
*DRIVER PAM/b_pipe_reg_0__0_:Q
*CELL DFFX1_RVT
*C2_R1_C1 1.056e+00 2.151e-05 1.056e+00 
*LOADS
*RC PAM/U3:A2 1.524e-05
*RC PAM/U35:A2 1.677e-05
*RC PAM/b_pipe_reg_1__0_:D 1.386e-05
*END

*R_NET PAM/partials_2__6_ 2.901e+00
*DRIVER PAM/partials_reg_2__6_:Q
*CELL DFFX1_RVT
*C2_R1_C1 1.451e+00 3.196e-05 1.451e+00 
*LOADS
*RC PAM/U17:B 6.882e-05
*END

*R_NET PAM/partials_2__5_ 2.483e+00
*DRIVER PAM/partials_reg_2__5_:Q
*CELL DFFX1_RVT
*C2_R1_C1 1.241e+00 2.293e-05 1.241e+00 
*LOADS
*RC PAM/U18:B 4.616e-05
*END

*R_NET PAM/partials_2__4_ 2.076e+00
*DRIVER PAM/partials_reg_2__4_:Q
*CELL DFFX1_RVT
*C2_R1_C1 1.038e+00 1.382e-05 1.038e+00 
*LOADS
*RC PAM/U19:B 2.596e-05
*END

*R_NET PAM/partials_2__3_ 1.687e+00
*DRIVER PAM/partials_reg_2__3_:Q
*CELL DFFX1_RVT
*C2_R1_C1 8.435e-01 1.417e-05 8.435e-01 
*LOADS
*RC PAM/U13:A3 8.818e-06
*RC PAM/U33:A3 1.207e-05
*RC PAM/U33:A1 1.140e-05
*END

*R_NET PAM/partials_1__5_ 1.931e+00
*DRIVER PAM/partials_reg_1__5_:Q
*CELL DFFX1_RVT
*C2_R1_C1 9.655e-01 1.070e-05 9.655e-01 
*LOADS
*RC PAM/U26:B 1.958e-05
*END

*R_NET PAM/partials_1__4_ 1.924e+00
*DRIVER PAM/partials_reg_1__4_:Q
*CELL DFFX1_RVT
*C2_R1_C1 9.618e-01 1.054e-05 9.618e-01 
*LOADS
*RC PAM/U27:B 1.926e-05
*END

*R_NET PAM/partials_1__3_ 1.915e+00
*DRIVER PAM/partials_reg_1__3_:Q
*CELL DFFX1_RVT
*C2_R1_C1 9.575e-01 1.044e-05 9.575e-01 
*LOADS
*RC PAM/U28:B 1.904e-05
*END

*R_NET PAM/partials_1__2_ 1.665e+00
*DRIVER PAM/partials_reg_1__2_:Q
*CELL DFFX1_RVT
*C2_R1_C1 8.324e-01 1.314e-05 8.324e-01 
*LOADS
*RC PAM/U22:A3 8.672e-06
*RC PAM/U34:A3 1.144e-05
*RC PAM/U34:A1 1.006e-05
*END

*R_NET PAM/partials_0__3_ 2.078e+00
*DRIVER PAM/partials_reg_0__3_:Q
*CELL DFFX1_RVT
*C2_R1_C1 1.039e+00 1.330e-05 1.039e+00 
*LOADS
*RC PAM/U37:A 2.543e-05
*END

*R_NET PAM/partials_0__2_ 2.102e+00
*DRIVER PAM/partials_reg_0__2_:Q
*CELL DFFX1_RVT
*C2_R1_C1 1.051e+00 1.335e-05 1.051e+00 
*LOADS
*RC PAM/U36:A 2.562e-05
*END

*R_NET PAM/partials_0__1_ 1.644e+00
*DRIVER PAM/partials_reg_0__1_:Q
*CELL DFFX1_RVT
*C2_R1_C1 8.220e-01 1.279e-05 8.220e-01 
*LOADS
*RC PAM/U3:A3 1.043e-05
*RC PAM/U35:A3 8.368e-06
*RC PAM/U35:A1 7.064e-06
*END

*R_NET PAM/N12 5.711e-01
*DRIVER PAM/partials_reg_0__0_:Q
*CELL DFFX1_RVT
*C2_R1_C1 2.856e-01 8.793e-06 2.856e-01 
*LOADS
*RC PAM/partials_reg_1__0_:D 4.623e-06
*END

*R_NET PAM/N13 1.232e+00
*DRIVER PAM/U35:Y
*CELL OA221X1_RVT
*C2_R1_C1 6.159e-01 2.375e-05 6.159e-01 
*LOADS
*RC PAM/partials_reg_1__1_:D 1.772e-05
*END

*R_NET PAM/N14 6.002e-01
*DRIVER PAM/U36:S
*CELL FADDX1_RVT
*C2_R1_C1 3.001e-01 9.780e-06 3.001e-01 
*LOADS
*RC PAM/partials_reg_1__2_:D 5.237e-06
*END

*R_NET PAM/N15 6.072e-01
*DRIVER PAM/U37:S
*CELL FADDX1_RVT
*C2_R1_C1 3.036e-01 9.613e-06 3.036e-01 
*LOADS
*RC PAM/partials_reg_1__3_:D 5.170e-06
*END

*R_NET PAM/N16 5.623e-01
*DRIVER PAM/U10:Y
*CELL AND2X1_RVT
*C2_R1_C1 2.811e-01 8.639e-06 2.811e-01 
*LOADS
*RC PAM/partials_reg_1__4_:D 4.517e-06
*END

*R_NET PAM/N17 6.892e-01
*DRIVER PAM/U38:Y
*CELL INVX0_RVT
*C2_R1_C1 3.446e-01 1.210e-05 3.446e-01 
*LOADS
*RC PAM/partials_reg_1__5_:D 6.841e-06
*END

*R_NET PAM/N24 5.790e-01
*DRIVER PAM/partials_reg_1__0_:Q
*CELL DFFX1_RVT
*C2_R1_C1 2.895e-01 9.153e-06 2.895e-01 
*LOADS
*RC PAM/partials_reg_2__0_:D 4.837e-06
*END

*R_NET PAM/N25 5.942e-01
*DRIVER PAM/partials_reg_1__1_:Q
*CELL DFFX1_RVT
*C2_R1_C1 2.971e-01 9.219e-06 2.971e-01 
*LOADS
*RC PAM/partials_reg_2__1_:D 4.918e-06
*END

*R_NET PAM/N26 8.368e-01
*DRIVER PAM/U34:Y
*CELL OA221X1_RVT
*C2_R1_C1 4.184e-01 1.469e-05 4.184e-01 
*LOADS
*RC PAM/partials_reg_2__2_:D 9.024e-06
*END

*R_NET PAM/N27 5.821e-01
*DRIVER PAM/U28:S
*CELL FADDX1_RVT
*C2_R1_C1 2.911e-01 9.109e-06 2.911e-01 
*LOADS
*RC PAM/partials_reg_2__3_:D 4.823e-06
*END

*R_NET PAM/N28 5.592e-01
*DRIVER PAM/U27:S
*CELL FADDX1_RVT
*C2_R1_C1 2.796e-01 8.593e-06 2.796e-01 
*LOADS
*RC PAM/partials_reg_2__4_:D 4.484e-06
*END

*R_NET PAM/N29 7.352e-01
*DRIVER PAM/U26:S
*CELL FADDX1_RVT
*C2_R1_C1 3.676e-01 1.245e-05 3.676e-01 
*LOADS
*RC PAM/partials_reg_2__5_:D 7.228e-06
*END

*R_NET PAM/N30 5.553e-01
*DRIVER PAM/U25:Y
*CELL NBUFFX2_RVT
*C2_R1_C1 2.776e-01 8.517e-06 2.776e-01 
*LOADS
*RC PAM/partials_reg_2__6_:D 4.433e-06
*END

*R_NET PAM/N36 5.722e-01
*DRIVER PAM/partials_reg_2__0_:Q
*CELL DFFX1_RVT
*C2_R1_C1 2.861e-01 8.988e-06 2.861e-01 
*LOADS
*RC PAM/partials_reg_3__0_:D 4.729e-06
*END

*R_NET PAM/N37 6.122e-01
*DRIVER PAM/partials_reg_2__1_:Q
*CELL DFFX1_RVT
*C2_R1_C1 3.061e-01 9.613e-06 3.061e-01 
*LOADS
*RC PAM/partials_reg_3__1_:D 5.186e-06
*END

*R_NET PAM/N38 5.399e-01
*DRIVER PAM/partials_reg_2__2_:Q
*CELL DFFX1_RVT
*C2_R1_C1 2.699e-01 8.077e-06 2.699e-01 
*LOADS
*RC PAM/partials_reg_3__2_:D 4.163e-06
*END

*R_NET PAM/N39 5.511e-01
*DRIVER PAM/U33:Y
*CELL OA221X1_RVT
*C2_R1_C1 2.756e-01 8.365e-06 2.756e-01 
*LOADS
*RC PAM/partials_reg_3__3_:D 4.342e-06
*END

*R_NET PAM/N40 5.918e-01
*DRIVER PAM/U19:S
*CELL FADDX1_RVT
*C2_R1_C1 2.959e-01 9.398e-06 2.959e-01 
*LOADS
*RC PAM/partials_reg_3__4_:D 5.006e-06
*END

*R_NET PAM/N41 5.332e-01
*DRIVER PAM/U18:S
*CELL FADDX1_RVT
*C2_R1_C1 2.666e-01 7.913e-06 2.666e-01 
*LOADS
*RC PAM/partials_reg_3__5_:D 4.060e-06
*END

*R_NET PAM/N42 7.188e-01
*DRIVER PAM/U17:S
*CELL FADDX1_RVT
*C2_R1_C1 3.594e-01 1.218e-05 3.594e-01 
*LOADS
*RC PAM/partials_reg_3__6_:D 7.003e-06
*END

*R_NET PAM/N43 7.927e-01
*DRIVER PAM/U16:Y
*CELL NBUFFX2_RVT
*C2_R1_C1 3.963e-01 1.375e-05 3.963e-01 
*LOADS
*RC PAM/partials_reg_3__7_:D 8.246e-06
*END

*R_NET PAM/n1 1.439e+00
*DRIVER PAM/U37:CO
*CELL FADDX1_RVT
*C2_R1_C1 7.193e-01 1.497e-05 7.193e-01 
*LOADS
*RC PAM/U7:A1 1.164e-05
*RC PAM/U9:A2 1.068e-05
*END

*R_NET PAM/n2 5.978e-01
*DRIVER PAM/U9:Y
*CELL OR2X1_RVT
*C2_R1_C1 2.989e-01 9.290e-06 2.989e-01 
*LOADS
*RC PAM/U10:A2 4.959e-06
*END

*R_NET PAM/n3 6.627e-01
*DRIVER PAM/U8:Y
*CELL AND2X1_RVT
*C2_R1_C1 3.314e-01 1.060e-05 3.314e-01 
*LOADS
*RC PAM/U10:A1 6.100e-06
*END

*R_NET PAM/n4 8.290e-01
*DRIVER PAM/U17:CO
*CELL FADDX1_RVT
*C2_R1_C1 4.145e-01 1.500e-05 4.145e-01 
*LOADS
*RC PAM/U16:A 9.351e-06
*END

*R_NET PAM/n5 1.546e+00
*DRIVER PAM/U18:CO
*CELL FADDX1_RVT
*C2_R1_C1 7.728e-01 1.184e-05 7.728e-01 
*LOADS
*RC PAM/U17:CI 1.665e-05
*END

*R_NET PAM/n6 2.583e+00
*DRIVER PAM/U11:Y
*CELL AND2X1_RVT
*C2_R1_C1 1.291e+00 2.372e-05 1.291e+00 
*LOADS
*RC PAM/U17:A 4.934e-05
*END

*R_NET PAM/n7 1.578e+00
*DRIVER PAM/U19:CO
*CELL FADDX1_RVT
*C2_R1_C1 7.892e-01 1.293e-05 7.892e-01 
*LOADS
*RC PAM/U18:CI 1.832e-05
*END

*R_NET PAM/n8 2.081e+00
*DRIVER PAM/U12:Y
*CELL AND2X1_RVT
*C2_R1_C1 1.041e+00 1.291e-05 1.041e+00 
*LOADS
*RC PAM/U18:A 2.471e-05
*END

*R_NET PAM/n9 1.489e+00
*DRIVER PAM/U15:Y
*CELL AND2X1_RVT
*C2_R1_C1 7.447e-01 1.092e-05 7.447e-01 
*LOADS
*RC PAM/U19:CI 1.515e-05
*END

*R_NET PAM/n10 2.029e+00
*DRIVER PAM/U14:Y
*CELL INVX0_RVT
*C2_R1_C1 1.014e+00 1.206e-05 1.014e+00 
*LOADS
*RC PAM/U19:A 2.286e-05
*END

*R_NET PAM/n11 5.805e-01
*DRIVER PAM/U26:CO
*CELL FADDX1_RVT
*C2_R1_C1 2.902e-01 8.774e-06 2.902e-01 
*LOADS
*RC PAM/U25:A 4.744e-06
*END

*R_NET PAM/n12 1.735e+00
*DRIVER PAM/U27:CO
*CELL FADDX1_RVT
*C2_R1_C1 8.677e-01 1.604e-05 8.677e-01 
*LOADS
*RC PAM/U26:CI 2.356e-05
*END

*R_NET PAM/n13 2.075e+00
*DRIVER PAM/U20:Y
*CELL AND2X1_RVT
*C2_R1_C1 1.038e+00 1.346e-05 1.038e+00 
*LOADS
*RC PAM/U26:A 2.572e-05
*END

*R_NET PAM/n14 1.559e+00
*DRIVER PAM/U28:CO
*CELL FADDX1_RVT
*C2_R1_C1 7.797e-01 1.230e-05 7.797e-01 
*LOADS
*RC PAM/U27:CI 1.735e-05
*END

*R_NET PAM/n15 2.540e+00
*DRIVER PAM/U21:Y
*CELL AND2X1_RVT
*C2_R1_C1 1.270e+00 2.275e-05 1.270e+00 
*LOADS
*RC PAM/U27:A 4.699e-05
*END

*R_NET PAM/n16 1.510e+00
*DRIVER PAM/U24:Y
*CELL AND2X1_RVT
*C2_R1_C1 7.549e-01 1.110e-05 7.549e-01 
*LOADS
*RC PAM/U28:CI 1.548e-05
*END

*R_NET PAM/n17 1.968e+00
*DRIVER PAM/U23:Y
*CELL INVX0_RVT
*C2_R1_C1 9.839e-01 1.022e-05 9.839e-01 
*LOADS
*RC PAM/U28:A 1.917e-05
*END

*R_NET PAM/n18 1.225e+00
*DRIVER PAM/U13:Y
*CELL NAND3X0_RVT
*C2_R1_C1 6.125e-01 1.290e-05 6.125e-01 
*LOADS
*RC PAM/U14:A 8.019e-06
*RC PAM/U33:A5 7.883e-06
*END

*R_NET PAM/n19 1.332e+00
*DRIVER PAM/U22:Y
*CELL NAND3X0_RVT
*C2_R1_C1 6.659e-01 1.475e-05 6.659e-01 
*LOADS
*RC PAM/U23:A 1.012e-05
*RC PAM/U34:A5 6.786e-06
*END

*R_NET PAM/n20 1.338e+00
*DRIVER PAM/U3:Y
*CELL NAND3X0_RVT
*C2_R1_C1 6.690e-01 1.487e-05 6.690e-01 
*LOADS
*RC PAM/U4:A 8.782e-06
*RC PAM/U35:A5 8.360e-06
*END

*R_NET PAM/n21 1.507e+00
*DRIVER PAM/U5:Y
*CELL AND2X1_RVT
*C2_R1_C1 7.533e-01 1.090e-05 7.533e-01 
*LOADS
*RC PAM/U36:CI 1.518e-05
*END

*R_NET PAM/n22 1.834e+00
*DRIVER PAM/U4:Y
*CELL INVX0_RVT
*C2_R1_C1 9.172e-01 8.549e-06 9.172e-01 
*LOADS
*RC PAM/U36:B 1.537e-05
*END

*R_NET PAM/n23 1.562e+00
*DRIVER PAM/U6:Y
*CELL AND2X1_RVT
*C2_R1_C1 7.808e-01 1.228e-05 7.808e-01 
*LOADS
*RC PAM/U37:CI 1.733e-05
*END

*R_NET PAM/n24 2.302e+00
*DRIVER PAM/U36:CO
*CELL FADDX1_RVT
*C2_R1_C1 1.151e+00 1.907e-05 1.151e+00 
*LOADS
*RC PAM/U37:B 3.726e-05
*END

*R_NET PAM/n25 1.540e+00
*DRIVER PAM/U7:Y
*CELL NAND2X0_RVT
*C2_R1_C1 7.698e-01 1.874e-05 7.698e-01 
*LOADS
*RC PAM/U8:A1 1.339e-05
*RC PAM/U38:A 8.947e-06
*END
