*SPEF "IEEE 1481-1999"
*DESIGN "TOP"
*DATE "Wed Oct 26 12:37:13 2022"
*VENDOR "SYNOPSYS INC"
*PROGRAM "Synopsys Design Compiler cmos"
*VERSION "O-2018.06-SP4"
*DESIGN_FLOW "SYNTHESIS"
*DIVIDER /
*DELIMITER :
*BUS_DELIMITER []
*T_UNIT 1.0 NS
*C_UNIT 0.0010 PF
*R_UNIT 1000.0 KOHM
*L_UNIT 1.0 HENRY

*PORTS

a\[3\] I *L 0.000e+00 *S 1.018e-03 1.122e-03 *D NBUFFX2_RVT 
a\[2\] I *L 0.000e+00 *S 1.069e-03 1.179e-03 *D NBUFFX2_RVT 
a\[1\] I *L 0.000e+00 *S 6.699e-04 7.349e-04 *D NBUFFX2_RVT 
a\[0\] I *L 0.000e+00 *S 4.026e-03 4.607e-03 *D NBUFFX2_RVT 
b\[3\] I *L 0.000e+00 *S 1.869e-03 2.095e-03 *D NBUFFX2_RVT 
b\[2\] I *L 0.000e+00 *S 1.651e-03 1.844e-03 *D NBUFFX2_RVT 
b\[1\] I *L 0.000e+00 *S 1.503e-03 1.672e-03 *D NBUFFX2_RVT 
b\[0\] I *L 0.000e+00 *S 1.609e-03 1.795e-03 *D NBUFFX2_RVT 
y\[7\] O *L 5.696e-01 *S 2.186e-03 2.604e-03 
y\[6\] O *L 5.696e-01 *S 2.713e-03 3.232e-03 
y\[5\] O *L 5.696e-01 *S 5.380e-03 6.495e-03 
y\[4\] O *L 5.696e-01 *S 1.748e-03 2.082e-03 
y\[3\] O *L 5.696e-01 *S 1.737e-03 2.068e-03 
y\[2\] O *L 5.696e-01 *S 2.482e-03 2.957e-03 
y\[1\] O *L 5.696e-01 *S 2.167e-03 2.581e-03 
y\[0\] O *L 5.696e-01 *S 1.966e-03 2.341e-03 
CLK I *L 0.000e+00 *S 0.000e+00 0.000e+00 

*R_NET a\[3\] 8.399e-01
*DRIVER a\[3\]
*CELL NBUFFX2_RVT
*C2_R1_C1 4.200e-01 1.184e-05 4.200e-01 
*LOADS
*RC PAM/a_pipe_reg_0__3_:D 7.634e-06
*END

*R_NET a\[2\] 8.802e-01
*DRIVER a\[2\]
*CELL NBUFFX2_RVT
*C2_R1_C1 4.401e-01 1.282e-05 4.401e-01 
*LOADS
*RC PAM/a_pipe_reg_0__2_:D 8.436e-06
*END

*R_NET a\[1\] 5.666e-01
*DRIVER a\[1\]
*CELL NBUFFX2_RVT
*C2_R1_C1 2.833e-01 6.415e-06 2.833e-01 
*LOADS
*RC PAM/a_pipe_reg_0__1_:D 3.551e-06
*END

*R_NET a\[0\] 3.514e+00
*DRIVER a\[0\]
*CELL NBUFFX2_RVT
*C2_R1_C1 1.757e+00 2.663e-05 1.757e+00 
*LOADS
*RC PAM/U29:A1 2.715e-05
*RC PAM/U30:A1 2.588e-05
*RC PAM/U31:A1 1.613e-05
*RC PAM/U32:A1 2.318e-05
*END

*R_NET b\[3\] 1.556e+00
*DRIVER b\[3\]
*CELL NBUFFX2_RVT
*C2_R1_C1 7.782e-01 1.754e-05 7.782e-01 
*LOADS
*RC PAM/U29:A2 7.829e-06
*RC PAM/b_pipe_reg_0__3_:D 1.362e-05
*END

*R_NET b\[2\] 1.370e+00
*DRIVER b\[2\]
*CELL NBUFFX2_RVT
*C2_R1_C1 6.851e-01 1.292e-05 6.851e-01 
*LOADS
*RC PAM/U30:A2 7.542e-06
*RC PAM/b_pipe_reg_0__2_:D 9.500e-06
*END

*R_NET b\[1\] 1.243e+00
*DRIVER b\[1\]
*CELL NBUFFX2_RVT
*C2_R1_C1 6.215e-01 9.433e-06 6.215e-01 
*LOADS
*RC PAM/U31:A2 6.393e-06
*RC PAM/b_pipe_reg_0__1_:D 6.169e-06
*END

*R_NET b\[0\] 1.334e+00
*DRIVER b\[0\]
*CELL NBUFFX2_RVT
*C2_R1_C1 6.670e-01 1.136e-05 6.670e-01 
*LOADS
*RC PAM/U32:A2 7.305e-06
*RC PAM/b_pipe_reg_0__0_:D 7.023e-06
*END

*R_NET y\[7\] 7.673e-01
*DRIVER PAM/partials_reg_3__7_:Q
*CELL DFFX1_RVT
*C2_R1_C1 3.836e-01 9.815e-06 3.836e-01 
*LOADS
*RC y\[7\] 6.237e-06
*END

*R_NET y\[6\] 9.635e-01
*DRIVER PAM/partials_reg_3__6_:Q
*CELL DFFX1_RVT
*C2_R1_C1 4.817e-01 1.446e-05 4.817e-01 
*LOADS
*RC y\[6\] 1.013e-05
*END

*R_NET y\[5\] 2.055e+00
*DRIVER PAM/partials_reg_3__5_:Q
*CELL DFFX1_RVT
*C2_R1_C1 1.028e+00 4.601e-05 1.028e+00 
*LOADS
*RC y\[5\] 4.899e-05
*END

*R_NET y\[4\] 6.040e-01
*DRIVER PAM/partials_reg_3__4_:Q
*CELL DFFX1_RVT
*C2_R1_C1 3.020e-01 6.814e-06 3.020e-01 
*LOADS
*RC y\[4\] 3.959e-06
*END

*R_NET y\[3\] 5.998e-01
*DRIVER PAM/partials_reg_3__3_:Q
*CELL DFFX1_RVT
*C2_R1_C1 2.999e-01 6.712e-06 2.999e-01 
*LOADS
*RC y\[3\] 3.890e-06
*END

*R_NET y\[2\] 8.774e-01
*DRIVER PAM/partials_reg_3__2_:Q
*CELL DFFX1_RVT
*C2_R1_C1 4.387e-01 1.238e-05 4.387e-01 
*LOADS
*RC y\[2\] 8.325e-06
*END

*R_NET y\[1\] 7.600e-01
*DRIVER PAM/partials_reg_3__1_:Q
*CELL DFFX1_RVT
*C2_R1_C1 3.800e-01 9.598e-06 3.800e-01 
*LOADS
*RC y\[1\] 6.076e-06
*END

*R_NET y\[0\] 6.850e-01
*DRIVER PAM/partials_reg_3__0_:Q
*CELL DFFX1_RVT
*C2_R1_C1 3.425e-01 8.023e-06 3.425e-01 
*LOADS
*RC y\[0\] 4.879e-06
*END

*R_NET PAM/N4 6.053e-01
*DRIVER PAM/U29:Y
*CELL AND2X1_RVT
*C2_R1_C1 3.027e-01 8.599e-06 3.027e-01 
*LOADS
*RC PAM/partials_reg_0__3_:D 4.871e-06
*END

*R_NET PAM/N5 6.434e-01
*DRIVER PAM/U30:Y
*CELL AND2X1_RVT
*C2_R1_C1 3.217e-01 9.492e-06 3.217e-01 
*LOADS
*RC PAM/partials_reg_0__2_:D 5.497e-06
*END

*R_NET PAM/N6 7.364e-01
*DRIVER PAM/U31:Y
*CELL AND2X1_RVT
*C2_R1_C1 3.682e-01 1.155e-05 3.682e-01 
*LOADS
*RC PAM/partials_reg_0__1_:D 7.048e-06
*END

*R_NET PAM/N7 8.904e-01
*DRIVER PAM/U32:Y
*CELL AND2X1_RVT
*C2_R1_C1 4.452e-01 1.475e-05 4.452e-01 
*LOADS
*RC PAM/partials_reg_0__0_:D 9.755e-06
*END

*R_NET PAM/a_pipe_2__3_ 4.530e+00
*DRIVER PAM/a_pipe_reg_2__3_:Q
*CELL DFFX1_RVT
*C2_R1_C1 2.265e+00 3.772e-05 2.265e+00 
*LOADS
*RC PAM/U11:A1 3.182e-05
*RC PAM/U12:A1 6.759e-05
*RC PAM/U13:A1 4.285e-05
*RC PAM/U15:A1 5.844e-05
*RC PAM/U33:A4 3.694e-05
*END

*R_NET PAM/a_pipe_1__3_ 1.002e+00
*DRIVER PAM/a_pipe_reg_1__3_:Q
*CELL DFFX1_RVT
*C2_R1_C1 5.008e-01 1.762e-05 5.008e-01 
*LOADS
*RC PAM/a_pipe_reg_2__3_:D 1.231e-05
*END

*R_NET PAM/a_pipe_1__2_ 4.558e+00
*DRIVER PAM/a_pipe_reg_1__2_:Q
*CELL DFFX1_RVT
*C2_R1_C1 2.279e+00 3.646e-05 2.279e+00 
*LOADS
*RC PAM/U20:A1 6.451e-05
*RC PAM/U21:A1 2.409e-05
*RC PAM/U22:A1 3.298e-05
*RC PAM/U24:A1 4.665e-05
*RC PAM/U34:A4 2.807e-05
*END

*R_NET PAM/a_pipe_0__3_ 5.789e-01
*DRIVER PAM/a_pipe_reg_0__3_:Q
*CELL DFFX1_RVT
*C2_R1_C1 2.894e-01 7.947e-06 2.894e-01 
*LOADS
*RC PAM/a_pipe_reg_1__3_:D 4.431e-06
*END

*R_NET PAM/a_pipe_0__2_ 6.221e-01
*DRIVER PAM/a_pipe_reg_0__2_:Q
*CELL DFFX1_RVT
*C2_R1_C1 3.110e-01 9.135e-06 3.110e-01 
*LOADS
*RC PAM/a_pipe_reg_1__2_:D 5.226e-06
*END

*R_NET PAM/a_pipe_0__1_ 3.814e+00
*DRIVER PAM/a_pipe_reg_0__1_:Q
*CELL DFFX1_RVT
*C2_R1_C1 1.907e+00 2.503e-05 1.907e+00 
*LOADS
*RC PAM/U3:A1 3.540e-05
*RC PAM/U5:A1 3.929e-05
*RC PAM/U6:A1 3.863e-05
*RC PAM/U8:A2 2.412e-05
*RC PAM/U35:A4 2.852e-05
*END

*R_NET PAM/b_pipe_2__3_ 9.012e-01
*DRIVER PAM/b_pipe_reg_2__3_:Q
*CELL DFFX1_RVT
*C2_R1_C1 4.506e-01 1.619e-05 4.506e-01 
*LOADS
*RC PAM/U11:A2 1.077e-05
*END

*R_NET PAM/b_pipe_2__2_ 6.578e-01
*DRIVER PAM/b_pipe_reg_2__2_:Q
*CELL DFFX1_RVT
*C2_R1_C1 3.289e-01 9.910e-06 3.289e-01 
*LOADS
*RC PAM/U12:A2 5.787e-06
*END

*R_NET PAM/b_pipe_2__1_ 6.499e-01
*DRIVER PAM/b_pipe_reg_2__1_:Q
*CELL DFFX1_RVT
*C2_R1_C1 3.250e-01 9.835e-06 3.250e-01 
*LOADS
*RC PAM/U15:A2 5.718e-06
*END

*R_NET PAM/b_pipe_2__0_ 1.543e+00
*DRIVER PAM/b_pipe_reg_2__0_:Q
*CELL DFFX1_RVT
*C2_R1_C1 7.714e-01 1.851e-05 7.714e-01 
*LOADS
*RC PAM/U13:A2 1.494e-05
*RC PAM/U33:A2 1.590e-05
*END

*R_NET PAM/b_pipe_1__3_ 1.311e+00
*DRIVER PAM/b_pipe_reg_1__3_:Q
*CELL DFFX1_RVT
*C2_R1_C1 6.554e-01 1.248e-05 6.554e-01 
*LOADS
*RC PAM/U20:A2 7.668e-06
*RC PAM/b_pipe_reg_2__3_:D 1.000e-05
*END

*R_NET PAM/b_pipe_1__2_ 1.315e+00
*DRIVER PAM/b_pipe_reg_1__2_:Q
*CELL DFFX1_RVT
*C2_R1_C1 6.576e-01 1.298e-05 6.576e-01 
*LOADS
*RC PAM/U21:A2 8.884e-06
*RC PAM/b_pipe_reg_2__2_:D 9.704e-06
*END

*R_NET PAM/b_pipe_1__1_ 1.369e+00
*DRIVER PAM/b_pipe_reg_1__1_:Q
*CELL DFFX1_RVT
*C2_R1_C1 6.845e-01 1.413e-05 6.845e-01 
*LOADS
*RC PAM/U24:A2 7.708e-06
*RC PAM/b_pipe_reg_2__1_:D 1.160e-05
*END

*R_NET PAM/b_pipe_1__0_ 2.169e+00
*DRIVER PAM/b_pipe_reg_1__0_:Q
*CELL DFFX1_RVT
*C2_R1_C1 1.085e+00 2.122e-05 1.085e+00 
*LOADS
*RC PAM/U22:A2 1.587e-05
*RC PAM/U34:A2 1.513e-05
*RC PAM/b_pipe_reg_2__0_:D 2.088e-05
*END

*R_NET PAM/b_pipe_0__3_ 1.941e+00
*DRIVER PAM/b_pipe_reg_0__3_:Q
*CELL DFFX1_RVT
*C2_R1_C1 9.706e-01 1.421e-05 9.706e-01 
*LOADS
*RC PAM/U7:A2 9.093e-06
*RC PAM/U9:A1 1.166e-05
*RC PAM/b_pipe_reg_1__3_:D 1.080e-05
*END

*R_NET PAM/b_pipe_0__2_ 1.995e+00
*DRIVER PAM/b_pipe_reg_0__2_:Q
*CELL DFFX1_RVT
*C2_R1_C1 9.973e-01 2.784e-05 9.973e-01 
*LOADS
*RC PAM/U6:A2 2.427e-05
*RC PAM/b_pipe_reg_1__2_:D 1.554e-05
*END

*R_NET PAM/b_pipe_0__1_ 1.362e+00
*DRIVER PAM/b_pipe_reg_0__1_:Q
*CELL DFFX1_RVT
*C2_R1_C1 6.812e-01 1.426e-05 6.812e-01 
*LOADS
*RC PAM/U5:A2 8.814e-06
*RC PAM/b_pipe_reg_1__1_:D 1.168e-05
*END

*R_NET PAM/b_pipe_0__0_ 2.254e+00
*DRIVER PAM/b_pipe_reg_0__0_:Q
*CELL DFFX1_RVT
*C2_R1_C1 1.127e+00 2.151e-05 1.127e+00 
*LOADS
*RC PAM/U3:A2 1.668e-05
*RC PAM/U35:A2 1.816e-05
*RC PAM/b_pipe_reg_1__0_:D 1.495e-05
*END

*R_NET PAM/partials_2__6_ 3.015e+00
*DRIVER PAM/partials_reg_2__6_:Q
*CELL DFFX1_RVT
*C2_R1_C1 1.508e+00 3.196e-05 1.508e+00 
*LOADS
*RC PAM/U17:B 7.245e-05
*END

*R_NET PAM/partials_2__5_ 2.596e+00
*DRIVER PAM/partials_reg_2__5_:Q
*CELL DFFX1_RVT
*C2_R1_C1 1.298e+00 2.293e-05 1.298e+00 
*LOADS
*RC PAM/U18:B 4.877e-05
*END

*R_NET PAM/partials_2__4_ 2.190e+00
*DRIVER PAM/partials_reg_2__4_:Q
*CELL DFFX1_RVT
*C2_R1_C1 1.095e+00 1.382e-05 1.095e+00 
*LOADS
*RC PAM/U19:B 2.753e-05
*END

*R_NET PAM/partials_2__3_ 1.845e+00
*DRIVER PAM/partials_reg_2__3_:Q
*CELL DFFX1_RVT
*C2_R1_C1 9.225e-01 1.417e-05 9.225e-01 
*LOADS
*RC PAM/U13:A3 9.690e-06
*RC PAM/U33:A3 1.353e-05
*RC PAM/U33:A1 1.256e-05
*END

*R_NET PAM/partials_1__5_ 2.045e+00
*DRIVER PAM/partials_reg_1__5_:Q
*CELL DFFX1_RVT
*C2_R1_C1 1.022e+00 1.070e-05 1.022e+00 
*LOADS
*RC PAM/U26:B 2.080e-05
*END

*R_NET PAM/partials_1__4_ 2.037e+00
*DRIVER PAM/partials_reg_1__4_:Q
*CELL DFFX1_RVT
*C2_R1_C1 1.019e+00 1.054e-05 1.019e+00 
*LOADS
*RC PAM/U27:B 2.045e-05
*END

*R_NET PAM/partials_1__3_ 2.029e+00
*DRIVER PAM/partials_reg_1__3_:Q
*CELL DFFX1_RVT
*C2_R1_C1 1.014e+00 1.044e-05 1.014e+00 
*LOADS
*RC PAM/U28:B 2.023e-05
*END

*R_NET PAM/partials_1__2_ 1.823e+00
*DRIVER PAM/partials_reg_1__2_:Q
*CELL DFFX1_RVT
*C2_R1_C1 9.114e-01 1.314e-05 9.114e-01 
*LOADS
*RC PAM/U22:A3 9.537e-06
*RC PAM/U34:A3 1.283e-05
*RC PAM/U34:A1 1.109e-05
*END

*R_NET PAM/partials_0__3_ 2.204e+00
*DRIVER PAM/partials_reg_0__3_:Q
*CELL DFFX1_RVT
*C2_R1_C1 1.102e+00 1.330e-05 1.102e+00 
*LOADS
*RC PAM/U37:A 2.711e-05
*END

*R_NET PAM/partials_0__2_ 2.228e+00
*DRIVER PAM/partials_reg_0__2_:Q
*CELL DFFX1_RVT
*C2_R1_C1 1.114e+00 1.335e-05 1.114e+00 
*LOADS
*RC PAM/U36:A 2.731e-05
*END

*R_NET PAM/partials_0__1_ 1.802e+00
*DRIVER PAM/partials_reg_0__1_:Q
*CELL DFFX1_RVT
*C2_R1_C1 9.010e-01 1.279e-05 9.010e-01 
*LOADS
*RC PAM/U3:A3 1.147e-05
*RC PAM/U35:A3 9.398e-06
*RC PAM/U35:A1 7.795e-06
*END

*R_NET PAM/N12 6.150e-01
*DRIVER PAM/partials_reg_0__0_:Q
*CELL DFFX1_RVT
*C2_R1_C1 3.075e-01 8.793e-06 3.075e-01 
*LOADS
*RC PAM/partials_reg_1__0_:D 5.009e-06
*END

*R_NET PAM/N13 1.276e+00
*DRIVER PAM/U35:Y
*CELL OA221X1_RVT
*C2_R1_C1 6.379e-01 2.375e-05 6.379e-01 
*LOADS
*RC PAM/partials_reg_1__1_:D 1.876e-05
*END

*R_NET PAM/N14 6.441e-01
*DRIVER PAM/U36:S
*CELL FADDX1_RVT
*C2_R1_C1 3.220e-01 9.780e-06 3.220e-01 
*LOADS
*RC PAM/partials_reg_1__2_:D 5.666e-06
*END

*R_NET PAM/N15 6.511e-01
*DRIVER PAM/U37:S
*CELL FADDX1_RVT
*C2_R1_C1 3.255e-01 9.613e-06 3.255e-01 
*LOADS
*RC PAM/partials_reg_1__3_:D 5.592e-06
*END

*R_NET PAM/N16 6.062e-01
*DRIVER PAM/U10:Y
*CELL AND2X1_RVT
*C2_R1_C1 3.031e-01 8.639e-06 3.031e-01 
*LOADS
*RC PAM/partials_reg_1__4_:D 4.896e-06
*END

*R_NET PAM/N17 7.331e-01
*DRIVER PAM/U38:Y
*CELL INVX0_RVT
*C2_R1_C1 3.666e-01 1.210e-05 3.666e-01 
*LOADS
*RC PAM/partials_reg_1__5_:D 7.372e-06
*END

*R_NET PAM/N24 6.229e-01
*DRIVER PAM/partials_reg_1__0_:Q
*CELL DFFX1_RVT
*C2_R1_C1 3.115e-01 9.153e-06 3.115e-01 
*LOADS
*RC PAM/partials_reg_2__0_:D 5.238e-06
*END

*R_NET PAM/N25 6.380e-01
*DRIVER PAM/partials_reg_1__1_:Q
*CELL DFFX1_RVT
*C2_R1_C1 3.190e-01 9.219e-06 3.190e-01 
*LOADS
*RC PAM/partials_reg_2__1_:D 5.323e-06
*END

*R_NET PAM/N26 8.806e-01
*DRIVER PAM/U34:Y
*CELL OA221X1_RVT
*C2_R1_C1 4.403e-01 1.469e-05 4.403e-01 
*LOADS
*RC PAM/partials_reg_2__2_:D 9.669e-06
*END

*R_NET PAM/N27 6.260e-01
*DRIVER PAM/U28:S
*CELL FADDX1_RVT
*C2_R1_C1 3.130e-01 9.109e-06 3.130e-01 
*LOADS
*RC PAM/partials_reg_2__3_:D 5.223e-06
*END

*R_NET PAM/N28 6.031e-01
*DRIVER PAM/U27:S
*CELL FADDX1_RVT
*C2_R1_C1 3.016e-01 8.593e-06 3.016e-01 
*LOADS
*RC PAM/partials_reg_2__4_:D 4.861e-06
*END

*R_NET PAM/N29 7.791e-01
*DRIVER PAM/U26:S
*CELL FADDX1_RVT
*C2_R1_C1 3.896e-01 1.245e-05 3.896e-01 
*LOADS
*RC PAM/partials_reg_2__5_:D 7.775e-06
*END

*R_NET PAM/N30 5.992e-01
*DRIVER PAM/U25:Y
*CELL NBUFFX2_RVT
*C2_R1_C1 2.996e-01 8.517e-06 2.996e-01 
*LOADS
*RC PAM/partials_reg_2__6_:D 4.807e-06
*END

*R_NET PAM/N36 6.161e-01
*DRIVER PAM/partials_reg_2__0_:Q
*CELL DFFX1_RVT
*C2_R1_C1 3.080e-01 8.988e-06 3.080e-01 
*LOADS
*RC PAM/partials_reg_3__0_:D 5.124e-06
*END

*R_NET PAM/N37 6.561e-01
*DRIVER PAM/partials_reg_2__1_:Q
*CELL DFFX1_RVT
*C2_R1_C1 3.281e-01 9.613e-06 3.281e-01 
*LOADS
*RC PAM/partials_reg_3__1_:D 5.608e-06
*END

*R_NET PAM/N38 5.838e-01
*DRIVER PAM/partials_reg_2__2_:Q
*CELL DFFX1_RVT
*C2_R1_C1 2.919e-01 8.077e-06 2.919e-01 
*LOADS
*RC PAM/partials_reg_3__2_:D 4.517e-06
*END

*R_NET PAM/N39 5.950e-01
*DRIVER PAM/U33:Y
*CELL OA221X1_RVT
*C2_R1_C1 2.975e-01 8.365e-06 2.975e-01 
*LOADS
*RC PAM/partials_reg_3__3_:D 4.709e-06
*END

*R_NET PAM/N40 6.357e-01
*DRIVER PAM/U19:S
*CELL FADDX1_RVT
*C2_R1_C1 3.178e-01 9.398e-06 3.178e-01 
*LOADS
*RC PAM/partials_reg_3__4_:D 5.419e-06
*END

*R_NET PAM/N41 5.771e-01
*DRIVER PAM/U18:S
*CELL FADDX1_RVT
*C2_R1_C1 2.886e-01 7.913e-06 2.886e-01 
*LOADS
*RC PAM/partials_reg_3__5_:D 4.408e-06
*END

*R_NET PAM/N42 7.627e-01
*DRIVER PAM/U17:S
*CELL FADDX1_RVT
*C2_R1_C1 3.813e-01 1.218e-05 3.813e-01 
*LOADS
*RC PAM/partials_reg_3__6_:D 7.538e-06
*END

*R_NET PAM/N43 8.366e-01
*DRIVER PAM/U16:Y
*CELL NBUFFX2_RVT
*C2_R1_C1 4.183e-01 1.375e-05 4.183e-01 
*LOADS
*RC PAM/partials_reg_3__7_:D 8.849e-06
*END

*R_NET PAM/n1 1.577e+00
*DRIVER PAM/U37:CO
*CELL FADDX1_RVT
*C2_R1_C1 7.883e-01 1.497e-05 7.883e-01 
*LOADS
*RC PAM/U7:A1 1.297e-05
*RC PAM/U9:A2 1.179e-05
*END

*R_NET PAM/n2 6.431e-01
*DRIVER PAM/U9:Y
*CELL OR2X1_RVT
*C2_R1_C1 3.215e-01 9.290e-06 3.215e-01 
*LOADS
*RC PAM/U10:A2 5.380e-06
*END

*R_NET PAM/n3 7.406e-01
*DRIVER PAM/U8:Y
*CELL AND2X1_RVT
*C2_R1_C1 3.703e-01 1.060e-05 3.703e-01 
*LOADS
*RC PAM/U10:A1 6.925e-06
*END

*R_NET PAM/n4 8.815e-01
*DRIVER PAM/U17:CO
*CELL FADDX1_RVT
*C2_R1_C1 4.407e-01 1.500e-05 4.407e-01 
*LOADS
*RC PAM/U16:A 1.014e-05
*END

*R_NET PAM/n5 1.642e+00
*DRIVER PAM/U18:CO
*CELL FADDX1_RVT
*C2_R1_C1 8.209e-01 1.184e-05 8.209e-01 
*LOADS
*RC PAM/U17:CI 1.778e-05
*END

*R_NET PAM/n6 2.709e+00
*DRIVER PAM/U11:Y
*CELL AND2X1_RVT
*C2_R1_C1 1.355e+00 2.372e-05 1.355e+00 
*LOADS
*RC PAM/U17:A 5.234e-05
*END

*R_NET PAM/n7 1.675e+00
*DRIVER PAM/U19:CO
*CELL FADDX1_RVT
*C2_R1_C1 8.373e-01 1.293e-05 8.373e-01 
*LOADS
*RC PAM/U18:CI 1.956e-05
*END

*R_NET PAM/n8 2.208e+00
*DRIVER PAM/U12:Y
*CELL AND2X1_RVT
*C2_R1_C1 1.104e+00 1.291e-05 1.104e+00 
*LOADS
*RC PAM/U18:A 2.634e-05
*END

*R_NET PAM/n9 1.586e+00
*DRIVER PAM/U15:Y
*CELL AND2X1_RVT
*C2_R1_C1 7.928e-01 1.092e-05 7.928e-01 
*LOADS
*RC PAM/U19:CI 1.620e-05
*END

*R_NET PAM/n10 2.155e+00
*DRIVER PAM/U14:Y
*CELL INVX0_RVT
*C2_R1_C1 1.078e+00 1.206e-05 1.078e+00 
*LOADS
*RC PAM/U19:A 2.439e-05
*END

*R_NET PAM/n11 6.330e-01
*DRIVER PAM/U26:CO
*CELL FADDX1_RVT
*C2_R1_C1 3.165e-01 8.774e-06 3.165e-01 
*LOADS
*RC PAM/U25:A 5.205e-06
*END

*R_NET PAM/n12 1.832e+00
*DRIVER PAM/U27:CO
*CELL FADDX1_RVT
*C2_R1_C1 9.158e-01 1.604e-05 9.158e-01 
*LOADS
*RC PAM/U26:CI 2.511e-05
*END

*R_NET PAM/n13 2.202e+00
*DRIVER PAM/U20:Y
*CELL AND2X1_RVT
*C2_R1_C1 1.101e+00 1.346e-05 1.101e+00 
*LOADS
*RC PAM/U26:A 2.742e-05
*END

*R_NET PAM/n14 1.656e+00
*DRIVER PAM/U28:CO
*CELL FADDX1_RVT
*C2_R1_C1 8.278e-01 1.230e-05 8.278e-01 
*LOADS
*RC PAM/U27:CI 1.854e-05
*END

*R_NET PAM/n15 2.666e+00
*DRIVER PAM/U21:Y
*CELL AND2X1_RVT
*C2_R1_C1 1.333e+00 2.275e-05 1.333e+00 
*LOADS
*RC PAM/U27:A 4.986e-05
*END

*R_NET PAM/n16 1.606e+00
*DRIVER PAM/U24:Y
*CELL AND2X1_RVT
*C2_R1_C1 8.030e-01 1.110e-05 8.030e-01 
*LOADS
*RC PAM/U28:CI 1.655e-05
*END

*R_NET PAM/n17 2.094e+00
*DRIVER PAM/U23:Y
*CELL INVX0_RVT
*C2_R1_C1 1.047e+00 1.022e-05 1.047e+00 
*LOADS
*RC PAM/U28:A 2.046e-05
*END

*R_NET PAM/n18 1.347e+00
*DRIVER PAM/U13:Y
*CELL NAND3X0_RVT
*C2_R1_C1 6.733e-01 1.290e-05 6.733e-01 
*LOADS
*RC PAM/U14:A 8.818e-06
*RC PAM/U33:A5 8.833e-06
*END

*R_NET PAM/n19 1.453e+00
*DRIVER PAM/U22:Y
*CELL NAND3X0_RVT
*C2_R1_C1 7.267e-01 1.475e-05 7.267e-01 
*LOADS
*RC PAM/U23:A 1.109e-05
*RC PAM/U34:A5 7.566e-06
*END

*R_NET PAM/n20 1.460e+00
*DRIVER PAM/U3:Y
*CELL NAND3X0_RVT
*C2_R1_C1 7.298e-01 1.487e-05 7.298e-01 
*LOADS
*RC PAM/U4:A 9.617e-06
*RC PAM/U35:A5 9.318e-06
*END

*R_NET PAM/n21 1.603e+00
*DRIVER PAM/U5:Y
*CELL AND2X1_RVT
*C2_R1_C1 8.014e-01 1.090e-05 8.014e-01 
*LOADS
*RC PAM/U36:CI 1.623e-05
*END

*R_NET PAM/n22 1.948e+00
*DRIVER PAM/U4:Y
*CELL INVX0_RVT
*C2_R1_C1 9.741e-01 8.549e-06 9.741e-01 
*LOADS
*RC PAM/U36:B 1.634e-05
*END

*R_NET PAM/n23 1.658e+00
*DRIVER PAM/U6:Y
*CELL AND2X1_RVT
*C2_R1_C1 8.289e-01 1.228e-05 8.289e-01 
*LOADS
*RC PAM/U37:CI 1.851e-05
*END

*R_NET PAM/n24 2.416e+00
*DRIVER PAM/U36:CO
*CELL FADDX1_RVT
*C2_R1_C1 1.208e+00 1.907e-05 1.208e+00 
*LOADS
*RC PAM/U37:B 3.942e-05
*END

*R_NET PAM/n25 1.673e+00
*DRIVER PAM/U7:Y
*CELL NAND2X0_RVT
*C2_R1_C1 8.365e-01 1.874e-05 8.365e-01 
*LOADS
*RC PAM/U8:A1 1.487e-05
*RC PAM/U38:A 9.762e-06
*END
