*SPEF "1481-1998"
*DESIGN "mul_bw16"
*DATE "Fri Nov 25 19:28:41 2022"
*VENDOR "Synopsys, Inc."
*PROGRAM "icc_shell"
*VERSION "O-2018.06-SP5"
*DESIGN_FLOW "PIN_CAP NONE"
*DIVIDER /
*DELIMITER :
*BUS_DELIMITER [ ]
*T_UNIT 1 NS
*C_UNIT 1 FF
*R_UNIT 1 OHM
*L_UNIT 1 HENRY

*NAME_MAP
*1 a[1]
*2 a[0]
*3 VDD
*4 VSS
*5 a[9]
*6 a[8]
*7 a[7]
*8 a[6]
*9 a[5]
*10 a[4]
*11 a[3]
*12 a[2]
*13 b[1]
*14 b[0]
*15 a[15]
*16 a[14]
*17 a[13]
*18 a[12]
*19 a[11]
*20 a[10]
*21 b[9]
*22 b[8]
*23 b[7]
*24 b[6]
*25 b[5]
*26 b[4]
*27 b[3]
*28 b[2]
*29 y[1]
*30 y[0]
*31 b[15]
*32 b[14]
*33 b[13]
*34 b[12]
*35 b[11]
*36 b[10]
*37 y[9]
*38 y[8]
*39 y[7]
*40 y[6]
*41 y[5]
*42 y[4]
*43 y[3]
*44 y[2]
*45 y[17]
*46 y[16]
*47 y[15]
*48 y[14]
*49 y[13]
*50 y[12]
*51 y[11]
*52 y[10]
*53 y[25]
*54 y[24]
*55 y[23]
*56 y[22]
*57 y[21]
*58 y[20]
*59 y[19]
*60 y[18]
*61 RESETn
*62 CLK
*63 y[31]
*64 y[30]
*65 y[29]
*66 y[28]
*67 y[27]
*68 y[26]
*69 add_30_G3/carry\[3\]
*70 add_30_G3/U2
*71 add_30_G3/U1_3
*72 N197
*73 add_30_G3/U1
*74 U1064
*75 partials\[1\]\[2\]
*76 partials_reg\[1\]\[2\]
*77 N215
*78 partials_reg\[2\]\[2\]
*79 N198
*80 U1063
*81 add_30_G3/carry\[4\]
*82 add_30_G3/U1_4
*83 partials\[1\]\[3\]
*84 partials_reg\[1\]\[3\]
*85 N216
*86 partials_reg\[2\]\[3\]
*87 N199
*88 U1062
*89 add_30_G3/carry\[5\]
*90 add_30_G3/U1_5
*91 partials\[1\]\[4\]
*92 partials_reg\[1\]\[4\]
*93 N217
*94 partials_reg\[2\]\[4\]
*95 N200
*96 U1061
*97 add_30_G3/carry\[6\]
*98 add_30_G3/U1_6
*99 partials\[1\]\[5\]
*100 partials_reg\[1\]\[5\]
*101 N218
*102 partials_reg\[2\]\[5\]
*103 N201
*104 U1060
*105 add_30_G3/carry\[7\]
*106 add_30_G3/U1_7
*107 partials\[1\]\[6\]
*108 partials_reg\[1\]\[6\]
*109 N219
*110 partials_reg\[2\]\[6\]
*111 N202
*112 U1059
*113 add_30_G3/carry\[8\]
*114 add_30_G3/U1_8
*115 partials\[1\]\[7\]
*116 partials_reg\[1\]\[7\]
*117 N220
*118 partials_reg\[2\]\[7\]
*119 N203
*120 U1058
*121 add_30_G3/carry\[9\]
*122 add_30_G3/U1_9
*123 partials\[1\]\[8\]
*124 partials_reg\[1\]\[8\]
*125 N221
*126 partials_reg\[2\]\[8\]
*127 N204
*128 U1057
*129 add_30_G3/carry\[10\]
*130 add_30_G3/U1_10
*131 partials\[1\]\[9\]
*132 partials_reg\[1\]\[9\]
*133 N222
*134 partials_reg\[2\]\[9\]
*135 N205
*136 U1056
*137 add_30_G3/carry\[11\]
*138 add_30_G3/U1_11
*139 partials\[1\]\[10\]
*140 partials_reg\[1\]\[10\]
*141 N223
*142 partials_reg\[2\]\[10\]
*143 N206
*144 U1055
*145 add_30_G3/carry\[12\]
*146 add_30_G3/U1_12
*147 partials\[1\]\[11\]
*148 partials_reg\[1\]\[11\]
*149 N224
*150 partials_reg\[2\]\[11\]
*151 N207
*152 U1054
*153 add_30_G3/carry\[13\]
*154 add_30_G3/U1_13
*155 partials\[1\]\[12\]
*156 partials_reg\[1\]\[12\]
*157 N225
*158 partials_reg\[2\]\[12\]
*159 N208
*160 U1053
*161 add_30_G3/carry\[14\]
*162 add_30_G3/U1_14
*163 partials\[1\]\[13\]
*164 partials_reg\[1\]\[13\]
*165 N226
*166 partials_reg\[2\]\[13\]
*167 N209
*168 U1052
*169 add_30_G3/carry\[15\]
*170 add_30_G3/U1_15
*171 partials\[1\]\[14\]
*172 partials_reg\[1\]\[14\]
*173 N227
*174 partials_reg\[2\]\[14\]
*175 N210
*176 U1051
*177 add_30_G3/carry\[16\]
*178 add_30_G3/U1_16
*179 partials\[1\]\[15\]
*180 partials_reg\[1\]\[15\]
*181 N228
*182 partials_reg\[2\]\[15\]
*183 N211
*184 U1050
*185 add_30_G3/carry\[17\]
*186 add_30_G3/U1_17
*187 partials\[1\]\[16\]
*188 partials_reg\[1\]\[16\]
*189 N229
*190 partials_reg\[2\]\[16\]
*191 N212
*192 U1049
*193 N231
*194 partials_reg\[2\]\[18\]
*195 partials\[1\]\[17\]
*196 partials_reg\[1\]\[17\]
*197 N230
*198 partials_reg\[2\]\[17\]
*199 add_30_G4/carry\[4\]
*200 add_30_G4/U27
*201 add_30_G4/U1_4
*202 N308
*203 add_30_G4/U15
*204 U1048
*205 partials\[2\]\[3\]
*206 add_30_G4/carry\[20\]
*207 add_30_G4/U26
*208 add_30_G4/U25
*209 add_30_G4/U2
*210 partials\[2\]\[19\]
*211 add_30_G4/U1
*212 partials_reg\[2\]\[19\]
*213 add_30_G4/carry\[19\]
*214 add_30_G4/U1_18
*215 add_30_G4/carry\[21\]
*216 add_30_G4/U24
*217 add_30_G4/U3
*218 partials\[2\]\[20\]
*219 partials_reg\[2\]\[20\]
*220 add_30_G4/carry\[22\]
*221 add_30_G4/U23
*222 add_30_G4/U4
*223 partials\[2\]\[21\]
*224 partials_reg\[2\]\[21\]
*225 add_30_G4/carry\[23\]
*226 add_30_G4/U22
*227 add_30_G4/U5
*228 partials\[2\]\[22\]
*229 partials_reg\[2\]\[22\]
*230 add_30_G4/carry\[24\]
*231 add_30_G4/U21
*232 add_30_G4/U6
*233 partials\[2\]\[23\]
*234 partials_reg\[2\]\[23\]
*235 add_30_G4/carry\[25\]
*236 add_30_G4/U20
*237 add_30_G4/U7
*238 partials\[2\]\[24\]
*239 partials_reg\[2\]\[24\]
*240 add_30_G4/carry\[26\]
*241 add_30_G4/U19
*242 add_30_G4/U8
*243 partials\[2\]\[25\]
*244 partials_reg\[2\]\[25\]
*245 add_30_G4/carry\[27\]
*246 add_30_G4/U18
*247 add_30_G4/U9
*248 partials\[2\]\[26\]
*249 partials_reg\[2\]\[26\]
*250 add_30_G4/carry\[28\]
*251 add_30_G4/U17
*252 add_30_G4/U10
*253 partials\[2\]\[27\]
*254 partials_reg\[2\]\[27\]
*255 add_30_G4/carry\[29\]
*256 add_30_G4/U16
*257 add_30_G4/U11
*258 partials\[2\]\[28\]
*259 partials_reg\[2\]\[28\]
*260 add_30_G4/carry\[30\]
*261 add_30_G4/U14
*262 add_30_G4/U12
*263 partials\[2\]\[29\]
*264 partials_reg\[2\]\[29\]
*265 N327
*266 partials_reg\[3\]\[3\]
*267 partials\[2\]\[30\]
*268 partials_reg\[2\]\[30\]
*269 add_30_G4/n1
*270 add_30_G4/U13
*271 partials\[2\]\[31\]
*272 partials_reg\[2\]\[31\]
*273 N355
*274 partials_reg\[3\]\[31\]
*275 N354
*276 partials_reg\[3\]\[30\]
*277 N353
*278 partials_reg\[3\]\[29\]
*279 N352
*280 partials_reg\[3\]\[28\]
*281 N351
*282 partials_reg\[3\]\[27\]
*283 N350
*284 partials_reg\[3\]\[26\]
*285 N349
*286 partials_reg\[3\]\[25\]
*287 N348
*288 partials_reg\[3\]\[24\]
*289 N347
*290 partials_reg\[3\]\[23\]
*291 N346
*292 partials_reg\[3\]\[22\]
*293 N345
*294 partials_reg\[3\]\[21\]
*295 N344
*296 partials_reg\[3\]\[20\]
*297 N343
*298 partials_reg\[3\]\[19\]
*299 N309
*300 U1047
*301 add_30_G4/carry\[5\]
*302 add_30_G4/U1_5
*303 partials\[2\]\[4\]
*304 N328
*305 partials_reg\[3\]\[4\]
*306 N310
*307 U1046
*308 add_30_G4/carry\[6\]
*309 add_30_G4/U1_6
*310 partials\[2\]\[5\]
*311 N329
*312 partials_reg\[3\]\[5\]
*313 N311
*314 U1045
*315 add_30_G4/carry\[7\]
*316 add_30_G4/U1_7
*317 partials\[2\]\[6\]
*318 N330
*319 partials_reg\[3\]\[6\]
*320 N312
*321 U1044
*322 add_30_G4/carry\[8\]
*323 add_30_G4/U1_8
*324 partials\[2\]\[7\]
*325 N331
*326 partials_reg\[3\]\[7\]
*327 N313
*328 U1043
*329 add_30_G4/carry\[9\]
*330 add_30_G4/U1_9
*331 partials\[2\]\[8\]
*332 N332
*333 partials_reg\[3\]\[8\]
*334 N314
*335 U1042
*336 add_30_G4/carry\[10\]
*337 add_30_G4/U1_10
*338 partials\[2\]\[9\]
*339 N333
*340 partials_reg\[3\]\[9\]
*341 N315
*342 U1041
*343 add_30_G4/carry\[11\]
*344 add_30_G4/U1_11
*345 partials\[2\]\[10\]
*346 N334
*347 partials_reg\[3\]\[10\]
*348 N316
*349 U1040
*350 add_30_G4/carry\[12\]
*351 add_30_G4/U1_12
*352 partials\[2\]\[11\]
*353 N335
*354 partials_reg\[3\]\[11\]
*355 N317
*356 U1039
*357 add_30_G4/carry\[13\]
*358 add_30_G4/U1_13
*359 partials\[2\]\[12\]
*360 N336
*361 partials_reg\[3\]\[12\]
*362 N318
*363 U1038
*364 add_30_G4/carry\[14\]
*365 add_30_G4/U1_14
*366 partials\[2\]\[13\]
*367 N337
*368 partials_reg\[3\]\[13\]
*369 N319
*370 U1037
*371 add_30_G4/carry\[15\]
*372 add_30_G4/U1_15
*373 partials\[2\]\[14\]
*374 N338
*375 partials_reg\[3\]\[14\]
*376 N320
*377 U1036
*378 add_30_G4/carry\[16\]
*379 add_30_G4/U1_16
*380 partials\[2\]\[15\]
*381 N339
*382 partials_reg\[3\]\[15\]
*383 N321
*384 U1035
*385 add_30_G4/carry\[17\]
*386 add_30_G4/U1_17
*387 partials\[2\]\[16\]
*388 N340
*389 partials_reg\[3\]\[16\]
*390 N322
*391 U1034
*392 add_30_G4/carry\[18\]
*393 partials\[2\]\[17\]
*394 N341
*395 partials_reg\[3\]\[17\]
*396 N323
*397 U1033
*398 partials\[2\]\[18\]
*399 N342
*400 partials_reg\[3\]\[18\]
*401 add_30_G5/carry\[5\]
*402 add_30_G5/U25
*403 add_30_G5/U1_5
*404 N418
*405 add_30_G5/U14
*406 U1032
*407 partials\[3\]\[4\]
*408 add_30_G5/carry\[21\]
*409 add_30_G5/U24
*410 add_30_G5/U23
*411 add_30_G5/U2
*412 partials\[3\]\[20\]
*413 add_30_G5/U1
*414 add_30_G5/carry\[20\]
*415 add_30_G5/U1_19
*416 add_30_G5/carry\[22\]
*417 add_30_G5/U22
*418 add_30_G5/U3
*419 partials\[3\]\[21\]
*420 add_30_G5/carry\[23\]
*421 add_30_G5/U21
*422 add_30_G5/U4
*423 partials\[3\]\[22\]
*424 add_30_G5/carry\[24\]
*425 add_30_G5/U20
*426 add_30_G5/U5
*427 partials\[3\]\[23\]
*428 add_30_G5/carry\[25\]
*429 add_30_G5/U19
*430 add_30_G5/U6
*431 partials\[3\]\[24\]
*432 add_30_G5/carry\[26\]
*433 add_30_G5/U18
*434 add_30_G5/U7
*435 partials\[3\]\[25\]
*436 add_30_G5/carry\[27\]
*437 add_30_G5/U17
*438 add_30_G5/U8
*439 partials\[3\]\[26\]
*440 add_30_G5/carry\[28\]
*441 add_30_G5/U16
*442 add_30_G5/U9
*443 partials\[3\]\[27\]
*444 add_30_G5/carry\[29\]
*445 add_30_G5/U15
*446 add_30_G5/U10
*447 partials\[3\]\[28\]
*448 add_30_G5/carry\[30\]
*449 add_30_G5/U13
*450 add_30_G5/U11
*451 partials\[3\]\[29\]
*452 N438
*453 partials_reg\[4\]\[4\]
*454 partials\[3\]\[30\]
*455 add_30_G5/n1
*456 add_30_G5/U12
*457 partials\[3\]\[31\]
*458 N465
*459 partials_reg\[4\]\[31\]
*460 N464
*461 partials_reg\[4\]\[30\]
*462 N463
*463 partials_reg\[4\]\[29\]
*464 N462
*465 partials_reg\[4\]\[28\]
*466 N461
*467 partials_reg\[4\]\[27\]
*468 N460
*469 partials_reg\[4\]\[26\]
*470 N459
*471 partials_reg\[4\]\[25\]
*472 N458
*473 partials_reg\[4\]\[24\]
*474 N457
*475 partials_reg\[4\]\[23\]
*476 N456
*477 partials_reg\[4\]\[22\]
*478 N455
*479 partials_reg\[4\]\[21\]
*480 N454
*481 partials_reg\[4\]\[20\]
*482 N419
*483 U1031
*484 add_30_G5/carry\[6\]
*485 add_30_G5/U1_6
*486 partials\[3\]\[5\]
*487 N439
*488 partials_reg\[4\]\[5\]
*489 N420
*490 U1030
*491 add_30_G5/carry\[7\]
*492 add_30_G5/U1_7
*493 partials\[3\]\[6\]
*494 N440
*495 partials_reg\[4\]\[6\]
*496 N421
*497 U1029
*498 add_30_G5/carry\[8\]
*499 add_30_G5/U1_8
*500 partials\[3\]\[7\]
*501 N441
*502 partials_reg\[4\]\[7\]
*503 N422
*504 U1028
*505 add_30_G5/carry\[9\]
*506 add_30_G5/U1_9
*507 partials\[3\]\[8\]
*508 N442
*509 partials_reg\[4\]\[8\]
*510 N423
*511 U1027
*512 add_30_G5/carry\[10\]
*513 add_30_G5/U1_10
*514 partials\[3\]\[9\]
*515 N443
*516 partials_reg\[4\]\[9\]
*517 N424
*518 U1026
*519 add_30_G5/carry\[11\]
*520 add_30_G5/U1_11
*521 partials\[3\]\[10\]
*522 N444
*523 partials_reg\[4\]\[10\]
*524 N425
*525 U1025
*526 add_30_G5/carry\[12\]
*527 add_30_G5/U1_12
*528 partials\[3\]\[11\]
*529 N445
*530 partials_reg\[4\]\[11\]
*531 N426
*532 U1024
*533 add_30_G5/carry\[13\]
*534 add_30_G5/U1_13
*535 partials\[3\]\[12\]
*536 N446
*537 partials_reg\[4\]\[12\]
*538 N427
*539 U1023
*540 add_30_G5/carry\[14\]
*541 add_30_G5/U1_14
*542 partials\[3\]\[13\]
*543 N447
*544 partials_reg\[4\]\[13\]
*545 N428
*546 U1022
*547 add_30_G5/carry\[15\]
*548 add_30_G5/U1_15
*549 partials\[3\]\[14\]
*550 N448
*551 partials_reg\[4\]\[14\]
*552 N429
*553 U1021
*554 add_30_G5/carry\[16\]
*555 add_30_G5/U1_16
*556 partials\[3\]\[15\]
*557 N449
*558 partials_reg\[4\]\[15\]
*559 N430
*560 U1020
*561 add_30_G5/carry\[17\]
*562 add_30_G5/U1_17
*563 partials\[3\]\[16\]
*564 N450
*565 partials_reg\[4\]\[16\]
*566 N431
*567 U1019
*568 add_30_G5/carry\[18\]
*569 add_30_G5/U1_18
*570 partials\[3\]\[17\]
*571 N451
*572 partials_reg\[4\]\[17\]
*573 N432
*574 U1018
*575 add_30_G5/carry\[19\]
*576 partials\[3\]\[18\]
*577 N452
*578 partials_reg\[4\]\[18\]
*579 N433
*580 U1017
*581 partials\[3\]\[19\]
*582 N453
*583 partials_reg\[4\]\[19\]
*584 add_30_G6/carry\[6\]
*585 add_30_G6/U23
*586 add_30_G6/U1_6
*587 N527
*588 add_30_G6/U13
*589 U1016
*590 partials\[4\]\[5\]
*591 add_30_G6/carry\[22\]
*592 add_30_G6/U22
*593 add_30_G6/U21
*594 add_30_G6/U2
*595 partials\[4\]\[21\]
*596 add_30_G6/U1
*597 add_30_G6/carry\[21\]
*598 add_30_G6/U1_20
*599 add_30_G6/carry\[23\]
*600 add_30_G6/U20
*601 add_30_G6/U3
*602 partials\[4\]\[22\]
*603 add_30_G6/carry\[24\]
*604 add_30_G6/U19
*605 add_30_G6/U4
*606 partials\[4\]\[23\]
*607 add_30_G6/carry\[25\]
*608 add_30_G6/U18
*609 add_30_G6/U5
*610 partials\[4\]\[24\]
*611 add_30_G6/carry\[26\]
*612 add_30_G6/U17
*613 add_30_G6/U6
*614 partials\[4\]\[25\]
*615 add_30_G6/carry\[27\]
*616 add_30_G6/U16
*617 add_30_G6/U7
*618 partials\[4\]\[26\]
*619 add_30_G6/carry\[28\]
*620 add_30_G6/U15
*621 add_30_G6/U8
*622 partials\[4\]\[27\]
*623 add_30_G6/carry\[29\]
*624 add_30_G6/U14
*625 add_30_G6/U9
*626 partials\[4\]\[28\]
*627 add_30_G6/carry\[30\]
*628 add_30_G6/U12
*629 add_30_G6/U10
*630 partials\[4\]\[29\]
*631 N548
*632 partials_reg\[5\]\[5\]
*633 partials\[4\]\[30\]
*634 add_30_G6/n1
*635 add_30_G6/U11
*636 partials\[4\]\[31\]
*637 N574
*638 partials_reg\[5\]\[31\]
*639 N573
*640 partials_reg\[5\]\[30\]
*641 N572
*642 partials_reg\[5\]\[29\]
*643 N571
*644 partials_reg\[5\]\[28\]
*645 N570
*646 partials_reg\[5\]\[27\]
*647 N569
*648 partials_reg\[5\]\[26\]
*649 N568
*650 partials_reg\[5\]\[25\]
*651 N567
*652 partials_reg\[5\]\[24\]
*653 N566
*654 partials_reg\[5\]\[23\]
*655 N565
*656 partials_reg\[5\]\[22\]
*657 N564
*658 partials_reg\[5\]\[21\]
*659 N528
*660 U1015
*661 add_30_G6/carry\[7\]
*662 add_30_G6/U1_7
*663 partials\[4\]\[6\]
*664 N549
*665 partials_reg\[5\]\[6\]
*666 N529
*667 U1014
*668 add_30_G6/carry\[8\]
*669 add_30_G6/U1_8
*670 partials\[4\]\[7\]
*671 N550
*672 partials_reg\[5\]\[7\]
*673 N530
*674 U1013
*675 add_30_G6/carry\[9\]
*676 add_30_G6/U1_9
*677 partials\[4\]\[8\]
*678 N551
*679 partials_reg\[5\]\[8\]
*680 N531
*681 U1012
*682 add_30_G6/carry\[10\]
*683 add_30_G6/U1_10
*684 partials\[4\]\[9\]
*685 N552
*686 partials_reg\[5\]\[9\]
*687 N532
*688 U1011
*689 add_30_G6/carry\[11\]
*690 add_30_G6/U1_11
*691 partials\[4\]\[10\]
*692 N553
*693 partials_reg\[5\]\[10\]
*694 N533
*695 U1010
*696 add_30_G6/carry\[12\]
*697 add_30_G6/U1_12
*698 partials\[4\]\[11\]
*699 N554
*700 partials_reg\[5\]\[11\]
*701 N534
*702 U1009
*703 add_30_G6/carry\[13\]
*704 add_30_G6/U1_13
*705 partials\[4\]\[12\]
*706 N555
*707 partials_reg\[5\]\[12\]
*708 N535
*709 U1008
*710 add_30_G6/carry\[14\]
*711 add_30_G6/U1_14
*712 partials\[4\]\[13\]
*713 N556
*714 partials_reg\[5\]\[13\]
*715 N536
*716 U1007
*717 add_30_G6/carry\[15\]
*718 add_30_G6/U1_15
*719 partials\[4\]\[14\]
*720 N557
*721 partials_reg\[5\]\[14\]
*722 N537
*723 U1006
*724 add_30_G6/carry\[16\]
*725 add_30_G6/U1_16
*726 partials\[4\]\[15\]
*727 N558
*728 partials_reg\[5\]\[15\]
*729 N538
*730 U1005
*731 add_30_G6/carry\[17\]
*732 add_30_G6/U1_17
*733 partials\[4\]\[16\]
*734 N559
*735 partials_reg\[5\]\[16\]
*736 N539
*737 U1004
*738 add_30_G6/carry\[18\]
*739 add_30_G6/U1_18
*740 partials\[4\]\[17\]
*741 N560
*742 partials_reg\[5\]\[17\]
*743 N540
*744 U1003
*745 add_30_G6/carry\[19\]
*746 add_30_G6/U1_19
*747 partials\[4\]\[18\]
*748 N561
*749 partials_reg\[5\]\[18\]
*750 N541
*751 U1002
*752 add_30_G6/carry\[20\]
*753 partials\[4\]\[19\]
*754 N562
*755 partials_reg\[5\]\[19\]
*756 N542
*757 U1001
*758 partials\[4\]\[20\]
*759 N563
*760 partials_reg\[5\]\[20\]
*761 add_30_G7/carry\[7\]
*762 add_30_G7/U21
*763 add_30_G7/U1_7
*764 N635
*765 add_30_G7/U12
*766 U1000
*767 partials\[5\]\[6\]
*768 add_30_G7/carry\[23\]
*769 add_30_G7/U20
*770 add_30_G7/U19
*771 add_30_G7/U2
*772 partials\[5\]\[22\]
*773 add_30_G7/U1
*774 add_30_G7/carry\[22\]
*775 add_30_G7/U1_21
*776 add_30_G7/carry\[24\]
*777 add_30_G7/U18
*778 add_30_G7/U3
*779 partials\[5\]\[23\]
*780 add_30_G7/carry\[25\]
*781 add_30_G7/U17
*782 add_30_G7/U4
*783 partials\[5\]\[24\]
*784 add_30_G7/carry\[26\]
*785 add_30_G7/U16
*786 add_30_G7/U5
*787 partials\[5\]\[25\]
*788 add_30_G7/carry\[27\]
*789 add_30_G7/U15
*790 add_30_G7/U6
*791 partials\[5\]\[26\]
*792 add_30_G7/carry\[28\]
*793 add_30_G7/U14
*794 add_30_G7/U7
*795 partials\[5\]\[27\]
*796 add_30_G7/carry\[29\]
*797 add_30_G7/U13
*798 add_30_G7/U8
*799 partials\[5\]\[28\]
*800 add_30_G7/carry\[30\]
*801 add_30_G7/U11
*802 add_30_G7/U9
*803 partials\[5\]\[29\]
*804 N657
*805 partials_reg\[6\]\[6\]
*806 partials\[5\]\[30\]
*807 add_30_G7/n1
*808 add_30_G7/U10
*809 partials\[5\]\[31\]
*810 N682
*811 partials_reg\[6\]\[31\]
*812 N681
*813 partials_reg\[6\]\[30\]
*814 N680
*815 partials_reg\[6\]\[29\]
*816 N679
*817 partials_reg\[6\]\[28\]
*818 N678
*819 partials_reg\[6\]\[27\]
*820 N677
*821 partials_reg\[6\]\[26\]
*822 N676
*823 partials_reg\[6\]\[25\]
*824 N675
*825 partials_reg\[6\]\[24\]
*826 N674
*827 partials_reg\[6\]\[23\]
*828 N673
*829 partials_reg\[6\]\[22\]
*830 N636
*831 U999
*832 add_30_G7/carry\[8\]
*833 add_30_G7/U1_8
*834 partials\[5\]\[7\]
*835 N658
*836 partials_reg\[6\]\[7\]
*837 N637
*838 U998
*839 add_30_G7/carry\[9\]
*840 add_30_G7/U1_9
*841 partials\[5\]\[8\]
*842 N659
*843 partials_reg\[6\]\[8\]
*844 N638
*845 U997
*846 add_30_G7/carry\[10\]
*847 add_30_G7/U1_10
*848 partials\[5\]\[9\]
*849 N660
*850 partials_reg\[6\]\[9\]
*851 N639
*852 U996
*853 add_30_G7/carry\[11\]
*854 add_30_G7/U1_11
*855 partials\[5\]\[10\]
*856 N661
*857 partials_reg\[6\]\[10\]
*858 N640
*859 U995
*860 add_30_G7/carry\[12\]
*861 add_30_G7/U1_12
*862 partials\[5\]\[11\]
*863 N662
*864 partials_reg\[6\]\[11\]
*865 N641
*866 U994
*867 add_30_G7/carry\[13\]
*868 add_30_G7/U1_13
*869 partials\[5\]\[12\]
*870 N663
*871 partials_reg\[6\]\[12\]
*872 N642
*873 U993
*874 add_30_G7/carry\[14\]
*875 add_30_G7/U1_14
*876 partials\[5\]\[13\]
*877 N664
*878 partials_reg\[6\]\[13\]
*879 N643
*880 U992
*881 add_30_G7/carry\[15\]
*882 add_30_G7/U1_15
*883 partials\[5\]\[14\]
*884 N665
*885 partials_reg\[6\]\[14\]
*886 N644
*887 U991
*888 add_30_G7/carry\[16\]
*889 add_30_G7/U1_16
*890 partials\[5\]\[15\]
*891 N666
*892 partials_reg\[6\]\[15\]
*893 N645
*894 U990
*895 add_30_G7/carry\[17\]
*896 add_30_G7/U1_17
*897 partials\[5\]\[16\]
*898 N667
*899 partials_reg\[6\]\[16\]
*900 N646
*901 U989
*902 add_30_G7/carry\[18\]
*903 add_30_G7/U1_18
*904 partials\[5\]\[17\]
*905 N668
*906 partials_reg\[6\]\[17\]
*907 N647
*908 U988
*909 add_30_G7/carry\[19\]
*910 add_30_G7/U1_19
*911 partials\[5\]\[18\]
*912 N669
*913 partials_reg\[6\]\[18\]
*914 N648
*915 U987
*916 add_30_G7/carry\[20\]
*917 add_30_G7/U1_20
*918 partials\[5\]\[19\]
*919 N670
*920 partials_reg\[6\]\[19\]
*921 N649
*922 U986
*923 add_30_G7/carry\[21\]
*924 partials\[5\]\[20\]
*925 N671
*926 partials_reg\[6\]\[20\]
*927 N650
*928 U985
*929 partials\[5\]\[21\]
*930 N672
*931 partials_reg\[6\]\[21\]
*932 add_30_G8/carry\[8\]
*933 add_30_G8/U19
*934 add_30_G8/U1_8
*935 N742
*936 add_30_G8/U11
*937 U984
*938 partials\[6\]\[7\]
*939 add_30_G8/carry\[24\]
*940 add_30_G8/U18
*941 add_30_G8/U17
*942 add_30_G8/U2
*943 partials\[6\]\[23\]
*944 add_30_G8/U1
*945 add_30_G8/carry\[23\]
*946 add_30_G8/U1_22
*947 add_30_G8/carry\[25\]
*948 add_30_G8/U16
*949 add_30_G8/U3
*950 partials\[6\]\[24\]
*951 add_30_G8/carry\[26\]
*952 add_30_G8/U15
*953 add_30_G8/U4
*954 partials\[6\]\[25\]
*955 add_30_G8/carry\[27\]
*956 add_30_G8/U14
*957 add_30_G8/U5
*958 partials\[6\]\[26\]
*959 add_30_G8/carry\[28\]
*960 add_30_G8/U13
*961 add_30_G8/U6
*962 partials\[6\]\[27\]
*963 add_30_G8/carry\[29\]
*964 add_30_G8/U12
*965 add_30_G8/U7
*966 partials\[6\]\[28\]
*967 add_30_G8/carry\[30\]
*968 add_30_G8/U10
*969 add_30_G8/U8
*970 partials\[6\]\[29\]
*971 N765
*972 partials_reg\[7\]\[7\]
*973 partials\[6\]\[30\]
*974 add_30_G8/n1
*975 add_30_G8/U9
*976 partials\[6\]\[31\]
*977 N789
*978 partials_reg\[7\]\[31\]
*979 N788
*980 partials_reg\[7\]\[30\]
*981 N787
*982 partials_reg\[7\]\[29\]
*983 N786
*984 partials_reg\[7\]\[28\]
*985 N785
*986 partials_reg\[7\]\[27\]
*987 N784
*988 partials_reg\[7\]\[26\]
*989 N783
*990 partials_reg\[7\]\[25\]
*991 N782
*992 partials_reg\[7\]\[24\]
*993 N781
*994 partials_reg\[7\]\[23\]
*995 N743
*996 U983
*997 add_30_G8/carry\[9\]
*998 add_30_G8/U1_9
*999 partials\[6\]\[8\]
*1000 N766
*1001 partials_reg\[7\]\[8\]
*1002 N744
*1003 U982
*1004 add_30_G8/carry\[10\]
*1005 add_30_G8/U1_10
*1006 partials\[6\]\[9\]
*1007 N767
*1008 partials_reg\[7\]\[9\]
*1009 N745
*1010 U981
*1011 add_30_G8/carry\[11\]
*1012 add_30_G8/U1_11
*1013 partials\[6\]\[10\]
*1014 N768
*1015 partials_reg\[7\]\[10\]
*1016 N746
*1017 U980
*1018 add_30_G8/carry\[12\]
*1019 add_30_G8/U1_12
*1020 partials\[6\]\[11\]
*1021 N769
*1022 partials_reg\[7\]\[11\]
*1023 N747
*1024 U979
*1025 add_30_G8/carry\[13\]
*1026 add_30_G8/U1_13
*1027 partials\[6\]\[12\]
*1028 N770
*1029 partials_reg\[7\]\[12\]
*1030 N748
*1031 U978
*1032 add_30_G8/carry\[14\]
*1033 add_30_G8/U1_14
*1034 partials\[6\]\[13\]
*1035 N771
*1036 partials_reg\[7\]\[13\]
*1037 N749
*1038 U977
*1039 add_30_G8/carry\[15\]
*1040 add_30_G8/U1_15
*1041 partials\[6\]\[14\]
*1042 N772
*1043 partials_reg\[7\]\[14\]
*1044 N750
*1045 U976
*1046 add_30_G8/carry\[16\]
*1047 add_30_G8/U1_16
*1048 partials\[6\]\[15\]
*1049 N773
*1050 partials_reg\[7\]\[15\]
*1051 N751
*1052 U975
*1053 add_30_G8/carry\[17\]
*1054 add_30_G8/U1_17
*1055 partials\[6\]\[16\]
*1056 N774
*1057 partials_reg\[7\]\[16\]
*1058 N752
*1059 U974
*1060 add_30_G8/carry\[18\]
*1061 add_30_G8/U1_18
*1062 partials\[6\]\[17\]
*1063 N775
*1064 partials_reg\[7\]\[17\]
*1065 N753
*1066 U973
*1067 add_30_G8/carry\[19\]
*1068 add_30_G8/U1_19
*1069 partials\[6\]\[18\]
*1070 N776
*1071 partials_reg\[7\]\[18\]
*1072 N754
*1073 U972
*1074 add_30_G8/carry\[20\]
*1075 add_30_G8/U1_20
*1076 partials\[6\]\[19\]
*1077 N777
*1078 partials_reg\[7\]\[19\]
*1079 N755
*1080 U971
*1081 add_30_G8/carry\[21\]
*1082 add_30_G8/U1_21
*1083 partials\[6\]\[20\]
*1084 N778
*1085 partials_reg\[7\]\[20\]
*1086 N756
*1087 U970
*1088 add_30_G8/carry\[22\]
*1089 partials\[6\]\[21\]
*1090 N779
*1091 partials_reg\[7\]\[21\]
*1092 N757
*1093 U969
*1094 partials\[6\]\[22\]
*1095 N780
*1096 partials_reg\[7\]\[22\]
*1097 add_30_G9/carry\[9\]
*1098 add_30_G9/U17
*1099 add_30_G9/U1_9
*1100 N848
*1101 add_30_G9/U10
*1102 U968
*1103 partials\[7\]\[8\]
*1104 add_30_G9/carry\[25\]
*1105 add_30_G9/U16
*1106 add_30_G9/U15
*1107 add_30_G9/U2
*1108 partials\[7\]\[24\]
*1109 add_30_G9/U1
*1110 add_30_G9/carry\[24\]
*1111 add_30_G9/U1_23
*1112 add_30_G9/carry\[26\]
*1113 add_30_G9/U14
*1114 add_30_G9/U3
*1115 partials\[7\]\[25\]
*1116 add_30_G9/carry\[27\]
*1117 add_30_G9/U13
*1118 add_30_G9/U4
*1119 partials\[7\]\[26\]
*1120 add_30_G9/carry\[28\]
*1121 add_30_G9/U12
*1122 add_30_G9/U5
*1123 partials\[7\]\[27\]
*1124 add_30_G9/carry\[29\]
*1125 add_30_G9/U11
*1126 add_30_G9/U6
*1127 partials\[7\]\[28\]
*1128 add_30_G9/carry\[30\]
*1129 add_30_G9/U9
*1130 add_30_G9/U7
*1131 partials\[7\]\[29\]
*1132 N872
*1133 partials_reg\[8\]\[8\]
*1134 partials\[7\]\[30\]
*1135 add_30_G9/n1
*1136 add_30_G9/U8
*1137 partials\[7\]\[31\]
*1138 N895
*1139 partials_reg\[8\]\[31\]
*1140 N894
*1141 partials_reg\[8\]\[30\]
*1142 N893
*1143 partials_reg\[8\]\[29\]
*1144 N892
*1145 partials_reg\[8\]\[28\]
*1146 N891
*1147 partials_reg\[8\]\[27\]
*1148 N890
*1149 partials_reg\[8\]\[26\]
*1150 N889
*1151 partials_reg\[8\]\[25\]
*1152 N888
*1153 partials_reg\[8\]\[24\]
*1154 N849
*1155 U967
*1156 add_30_G9/carry\[10\]
*1157 add_30_G9/U1_10
*1158 partials\[7\]\[9\]
*1159 N873
*1160 partials_reg\[8\]\[9\]
*1161 N850
*1162 U965
*1163 add_30_G9/carry\[11\]
*1164 add_30_G9/U1_11
*1165 partials\[7\]\[10\]
*1166 N874
*1167 partials_reg\[8\]\[10\]
*1168 N851
*1169 U964
*1170 add_30_G9/carry\[12\]
*1171 add_30_G9/U1_12
*1172 partials\[7\]\[11\]
*1173 N875
*1174 partials_reg\[8\]\[11\]
*1175 N852
*1176 U963
*1177 add_30_G9/carry\[13\]
*1178 add_30_G9/U1_13
*1179 partials\[7\]\[12\]
*1180 N876
*1181 partials_reg\[8\]\[12\]
*1182 N853
*1183 U962
*1184 add_30_G9/carry\[14\]
*1185 add_30_G9/U1_14
*1186 partials\[7\]\[13\]
*1187 N877
*1188 partials_reg\[8\]\[13\]
*1189 N854
*1190 U961
*1191 add_30_G9/carry\[15\]
*1192 add_30_G9/U1_15
*1193 partials\[7\]\[14\]
*1194 N878
*1195 partials_reg\[8\]\[14\]
*1196 N855
*1197 U960
*1198 add_30_G9/carry\[16\]
*1199 add_30_G9/U1_16
*1200 partials\[7\]\[15\]
*1201 N879
*1202 partials_reg\[8\]\[15\]
*1203 N856
*1204 U959
*1205 add_30_G9/carry\[17\]
*1206 add_30_G9/U1_17
*1207 partials\[7\]\[16\]
*1208 N880
*1209 partials_reg\[8\]\[16\]
*1210 N857
*1211 U958
*1212 add_30_G9/carry\[18\]
*1213 add_30_G9/U1_18
*1214 partials\[7\]\[17\]
*1215 N881
*1216 partials_reg\[8\]\[17\]
*1217 N858
*1218 U957
*1219 add_30_G9/carry\[19\]
*1220 add_30_G9/U1_19
*1221 partials\[7\]\[18\]
*1222 N882
*1223 partials_reg\[8\]\[18\]
*1224 N859
*1225 U956
*1226 add_30_G9/carry\[20\]
*1227 add_30_G9/U1_20
*1228 partials\[7\]\[19\]
*1229 N883
*1230 partials_reg\[8\]\[19\]
*1231 N860
*1232 U954
*1233 add_30_G9/carry\[21\]
*1234 add_30_G9/U1_21
*1235 partials\[7\]\[20\]
*1236 N884
*1237 partials_reg\[8\]\[20\]
*1238 N861
*1239 U953
*1240 add_30_G9/carry\[22\]
*1241 add_30_G9/U1_22
*1242 partials\[7\]\[21\]
*1243 N885
*1244 partials_reg\[8\]\[21\]
*1245 N862
*1246 U952
*1247 add_30_G9/carry\[23\]
*1248 partials\[7\]\[22\]
*1249 N886
*1250 partials_reg\[8\]\[22\]
*1251 N863
*1252 U951
*1253 partials\[7\]\[23\]
*1254 N887
*1255 partials_reg\[8\]\[23\]
*1256 add_30_G10/carry\[10\]
*1257 add_30_G10/U15
*1258 add_30_G10/U1_10
*1259 N953
*1260 add_30_G10/U9
*1261 U941
*1262 partials\[8\]\[9\]
*1263 add_30_G10/carry\[26\]
*1264 add_30_G10/U14
*1265 add_30_G10/U13
*1266 add_30_G10/U2
*1267 partials\[8\]\[25\]
*1268 add_30_G10/U1
*1269 add_30_G10/carry\[25\]
*1270 add_30_G10/U1_24
*1271 add_30_G10/carry\[27\]
*1272 add_30_G10/U12
*1273 add_30_G10/U3
*1274 partials\[8\]\[26\]
*1275 add_30_G10/carry\[28\]
*1276 add_30_G10/U11
*1277 add_30_G10/U4
*1278 partials\[8\]\[27\]
*1279 add_30_G10/carry\[29\]
*1280 add_30_G10/U10
*1281 add_30_G10/U5
*1282 partials\[8\]\[28\]
*1283 add_30_G10/carry\[30\]
*1284 add_30_G10/U8
*1285 add_30_G10/U6
*1286 partials\[8\]\[29\]
*1287 N978
*1288 partials_reg\[9\]\[9\]
*1289 partials\[8\]\[30\]
*1290 add_30_G10/n1
*1291 add_30_G10/U7
*1292 partials\[8\]\[31\]
*1293 N1000
*1294 partials_reg\[9\]\[31\]
*1295 N999
*1296 partials_reg\[9\]\[30\]
*1297 N998
*1298 partials_reg\[9\]\[29\]
*1299 N997
*1300 partials_reg\[9\]\[28\]
*1301 N996
*1302 partials_reg\[9\]\[27\]
*1303 N995
*1304 partials_reg\[9\]\[26\]
*1305 N994
*1306 partials_reg\[9\]\[25\]
*1307 N954
*1308 U940
*1309 add_30_G10/carry\[11\]
*1310 add_30_G10/U1_11
*1311 partials\[8\]\[10\]
*1312 N979
*1313 partials_reg\[9\]\[10\]
*1314 N955
*1315 U939
*1316 add_30_G10/carry\[12\]
*1317 add_30_G10/U1_12
*1318 partials\[8\]\[11\]
*1319 N980
*1320 partials_reg\[9\]\[11\]
*1321 N956
*1322 U938
*1323 add_30_G10/carry\[13\]
*1324 add_30_G10/U1_13
*1325 partials\[8\]\[12\]
*1326 N981
*1327 partials_reg\[9\]\[12\]
*1328 N957
*1329 U937
*1330 add_30_G10/carry\[14\]
*1331 add_30_G10/U1_14
*1332 partials\[8\]\[13\]
*1333 N982
*1334 partials_reg\[9\]\[13\]
*1335 N958
*1336 U936
*1337 add_30_G10/carry\[15\]
*1338 add_30_G10/U1_15
*1339 partials\[8\]\[14\]
*1340 N983
*1341 partials_reg\[9\]\[14\]
*1342 N959
*1343 U935
*1344 add_30_G10/carry\[16\]
*1345 add_30_G10/U1_16
*1346 partials\[8\]\[15\]
*1347 N984
*1348 partials_reg\[9\]\[15\]
*1349 N960
*1350 U933
*1351 add_30_G10/carry\[17\]
*1352 add_30_G10/U1_17
*1353 partials\[8\]\[16\]
*1354 N985
*1355 partials_reg\[9\]\[16\]
*1356 N961
*1357 U932
*1358 add_30_G10/carry\[18\]
*1359 add_30_G10/U1_18
*1360 partials\[8\]\[17\]
*1361 N986
*1362 partials_reg\[9\]\[17\]
*1363 N962
*1364 U931
*1365 add_30_G10/carry\[19\]
*1366 add_30_G10/U1_19
*1367 partials\[8\]\[18\]
*1368 N987
*1369 partials_reg\[9\]\[18\]
*1370 N963
*1371 U930
*1372 add_30_G10/carry\[20\]
*1373 add_30_G10/U1_20
*1374 partials\[8\]\[19\]
*1375 N988
*1376 partials_reg\[9\]\[19\]
*1377 N964
*1378 U929
*1379 add_30_G10/carry\[21\]
*1380 add_30_G10/U1_21
*1381 partials\[8\]\[20\]
*1382 N989
*1383 partials_reg\[9\]\[20\]
*1384 N965
*1385 U928
*1386 add_30_G10/carry\[22\]
*1387 add_30_G10/U1_22
*1388 partials\[8\]\[21\]
*1389 N990
*1390 partials_reg\[9\]\[21\]
*1391 N966
*1392 U927
*1393 add_30_G10/carry\[23\]
*1394 add_30_G10/U1_23
*1395 partials\[8\]\[22\]
*1396 N991
*1397 partials_reg\[9\]\[22\]
*1398 N967
*1399 U926
*1400 add_30_G10/carry\[24\]
*1401 partials\[8\]\[23\]
*1402 N992
*1403 partials_reg\[9\]\[23\]
*1404 N968
*1405 U925
*1406 partials\[8\]\[24\]
*1407 N993
*1408 partials_reg\[9\]\[24\]
*1409 add_30_G11/carry\[11\]
*1410 add_30_G11/U13
*1411 add_30_G11/U1_11
*1412 N1057
*1413 add_30_G11/U8
*1414 U1176
*1415 partials\[9\]\[10\]
*1416 add_30_G11/carry\[27\]
*1417 add_30_G11/U12
*1418 add_30_G11/U11
*1419 add_30_G11/U2
*1420 partials\[9\]\[26\]
*1421 add_30_G11/U1
*1422 add_30_G11/carry\[26\]
*1423 add_30_G11/U1_25
*1424 add_30_G11/carry\[28\]
*1425 add_30_G11/U10
*1426 add_30_G11/U3
*1427 partials\[9\]\[27\]
*1428 add_30_G11/carry\[29\]
*1429 add_30_G11/U9
*1430 add_30_G11/U4
*1431 partials\[9\]\[28\]
*1432 add_30_G11/carry\[30\]
*1433 add_30_G11/U7
*1434 add_30_G11/U5
*1435 partials\[9\]\[29\]
*1436 N1083
*1437 partials_reg\[10\]\[10\]
*1438 partials\[9\]\[30\]
*1439 add_30_G11/n1
*1440 add_30_G11/U6
*1441 partials\[9\]\[31\]
*1442 N1104
*1443 partials_reg\[10\]\[31\]
*1444 N1103
*1445 partials_reg\[10\]\[30\]
*1446 N1102
*1447 partials_reg\[10\]\[29\]
*1448 N1101
*1449 partials_reg\[10\]\[28\]
*1450 N1100
*1451 partials_reg\[10\]\[27\]
*1452 N1099
*1453 partials_reg\[10\]\[26\]
*1454 N1058
*1455 U1175
*1456 add_30_G11/carry\[12\]
*1457 add_30_G11/U1_12
*1458 partials\[9\]\[11\]
*1459 N1084
*1460 partials_reg\[10\]\[11\]
*1461 N1059
*1462 U1174
*1463 add_30_G11/carry\[13\]
*1464 add_30_G11/U1_13
*1465 partials\[9\]\[12\]
*1466 N1085
*1467 partials_reg\[10\]\[12\]
*1468 N1060
*1469 U1173
*1470 add_30_G11/carry\[14\]
*1471 add_30_G11/U1_14
*1472 partials\[9\]\[13\]
*1473 N1086
*1474 partials_reg\[10\]\[13\]
*1475 N1061
*1476 U1172
*1477 add_30_G11/carry\[15\]
*1478 add_30_G11/U1_15
*1479 partials\[9\]\[14\]
*1480 N1087
*1481 partials_reg\[10\]\[14\]
*1482 N1062
*1483 U1171
*1484 add_30_G11/carry\[16\]
*1485 add_30_G11/U1_16
*1486 partials\[9\]\[15\]
*1487 N1088
*1488 partials_reg\[10\]\[15\]
*1489 N1063
*1490 U1170
*1491 add_30_G11/carry\[17\]
*1492 add_30_G11/U1_17
*1493 partials\[9\]\[16\]
*1494 N1089
*1495 partials_reg\[10\]\[16\]
*1496 N1064
*1497 U1169
*1498 add_30_G11/carry\[18\]
*1499 add_30_G11/U1_18
*1500 partials\[9\]\[17\]
*1501 N1090
*1502 partials_reg\[10\]\[17\]
*1503 N1065
*1504 U1168
*1505 add_30_G11/carry\[19\]
*1506 add_30_G11/U1_19
*1507 partials\[9\]\[18\]
*1508 N1091
*1509 partials_reg\[10\]\[18\]
*1510 N1066
*1511 U1167
*1512 add_30_G11/carry\[20\]
*1513 add_30_G11/U1_20