*SPEF "IEEE 1481-1999"
*DESIGN "TOP"
*DATE "Mon Oct  3 17:19:28 2022"
*VENDOR "SYNOPSYS INC"
*PROGRAM "Synopsys Design Compiler cmos"
*VERSION "O-2018.06-SP4"
*DESIGN_FLOW "SYNTHESIS"
*DIVIDER /
*DELIMITER :
*BUS_DELIMITER []
*T_UNIT 1.0 NS
*C_UNIT 0.0010 PF
*R_UNIT 1000.0 KOHM
*L_UNIT 1.0 HENRY

*PORTS

a\[2\] I *L 0.000e+00 *S 2.473e-03 2.793e-03 *D NBUFFX2_RVT 
a\[1\] I *L 0.000e+00 *S 2.447e-03 2.763e-03 *D NBUFFX2_RVT 
a\[0\] I *L 0.000e+00 *S 1.883e-03 2.111e-03 *D NBUFFX2_RVT 
b\[2\] I *L 0.000e+00 *S 2.360e-03 2.662e-03 *D NBUFFX2_RVT 
b\[1\] I *L 0.000e+00 *S 2.333e-03 2.631e-03 *D NBUFFX2_RVT 
b\[0\] I *L 0.000e+00 *S 1.896e-03 2.126e-03 *D NBUFFX2_RVT 
c\[2\] I *L 0.000e+00 *S 2.620e-03 2.965e-03 *D NBUFFX2_RVT 
c\[1\] I *L 0.000e+00 *S 2.494e-03 2.818e-03 *D NBUFFX2_RVT 
c\[0\] I *L 0.000e+00 *S 1.727e-03 1.931e-03 *D NBUFFX2_RVT 
d\[2\] I *L 0.000e+00 *S 2.506e-03 2.832e-03 *D NBUFFX2_RVT 
d\[1\] I *L 0.000e+00 *S 2.379e-03 2.684e-03 *D NBUFFX2_RVT 
d\[0\] I *L 0.000e+00 *S 1.682e-03 1.880e-03 *D NBUFFX2_RVT 
CLK I *L 0.000e+00 *S 0.000e+00 0.000e+00 
RESETn I *L 0.000e+00 *S 0.000e+00 0.000e+00 
y\[7\] O *L 5.696e-01 *S 2.082e-03 3.377e-03 
y\[6\] O *L 5.696e-01 *S 1.882e-03 3.033e-03 
y\[5\] O *L 5.696e-01 *S 1.920e-03 3.099e-03 
y\[4\] O *L 5.696e-01 *S 1.897e-03 3.060e-03 
y\[3\] O *L 5.696e-01 *S 2.590e-03 4.250e-03 
y\[2\] O *L 5.696e-01 *S 2.206e-03 3.590e-03 
y\[1\] O *L 5.696e-01 *S 2.117e-03 3.438e-03 
y\[0\] O *L 5.696e-01 *S 1.871e-03 3.014e-03 

*R_NET a\[2\] 2.079e+00
*DRIVER a\[2\]
*CELL NBUFFX2_RVT
*C2_R1_C1 1.039e+00 9.132e-06 1.039e+00 
*LOADS
*RC Np1/U17:A 1.823e-05
*END

*R_NET a\[1\] 2.055e+00
*DRIVER a\[1\]
*CELL NBUFFX2_RVT
*C2_R1_C1 1.027e+00 8.563e-06 1.027e+00 
*LOADS
*RC Np1/U12:A 1.703e-05
*END

*R_NET a\[0\] 1.567e+00
*DRIVER a\[0\]
*CELL NBUFFX2_RVT
*C2_R1_C1 7.837e-01 1.705e-05 7.837e-01 
*LOADS
*RC Np1/U3:A2 1.285e-05
*RC Np1/U4:A2 1.526e-05
*END

*R_NET b\[2\] 1.979e+00
*DRIVER b\[2\]
*CELL NBUFFX2_RVT
*C2_R1_C1 9.895e-01 8.159e-06 9.895e-01 
*LOADS
*RC Np1/U17:B 1.568e-05
*END

*R_NET b\[1\] 1.955e+00
*DRIVER b\[1\]
*CELL NBUFFX2_RVT
*C2_R1_C1 9.777e-01 7.565e-06 9.777e-01 
*LOADS
*RC Np1/U12:B 1.448e-05
*END

*R_NET b\[0\] 1.579e+00
*DRIVER b\[0\]
*CELL NBUFFX2_RVT
*C2_R1_C1 7.893e-01 1.633e-05 7.893e-01 
*LOADS
*RC Np1/U3:A1 1.433e-05
*RC Np1/U4:A1 1.350e-05
*END

*R_NET c\[2\] 2.213e+00
*DRIVER c\[2\]
*CELL NBUFFX2_RVT
*C2_R1_C1 1.107e+00 1.274e-05 1.107e+00 
*LOADS
*RC Np1/U11:A 2.601e-05
*END

*R_NET c\[1\] 2.098e+00
*DRIVER c\[1\]
*CELL NBUFFX2_RVT
*C2_R1_C1 1.049e+00 9.661e-06 1.049e+00 
*LOADS
*RC Np1/U16:A 1.935e-05
*END

*R_NET c\[0\] 1.434e+00
*DRIVER c\[0\]
*CELL NBUFFX2_RVT
*C2_R1_C1 7.169e-01 1.447e-05 7.169e-01 
*LOADS
*RC Np1/U5:A2 9.108e-06
*RC Np1/U6:A2 1.124e-05
*END

*R_NET d\[2\] 2.110e+00
*DRIVER d\[2\]
*CELL NBUFFX2_RVT
*C2_R1_C1 1.055e+00 1.167e-05 1.055e+00 
*LOADS
*RC Np1/U11:B 2.294e-05
*END

*R_NET d\[1\] 1.995e+00
*DRIVER d\[1\]
*CELL NBUFFX2_RVT
*C2_R1_C1 9.974e-01 8.613e-06 9.974e-01 
*LOADS
*RC Np1/U16:B 1.659e-05
*END

*R_NET d\[0\] 1.396e+00
*DRIVER d\[0\]
*CELL NBUFFX2_RVT
*C2_R1_C1 6.980e-01 1.266e-05 6.980e-01 
*LOADS
*RC Np1/U5:A1 9.311e-06
*RC Np1/U6:A1 9.968e-06
*END

*R_NET y\[7\] 6.752e-01
*DRIVER Np1/y_reg_7_:Q
*CELL DFFARX1_RVT
*C2_R1_C1 3.376e-01 7.666e-06 3.376e-01 
*LOADS
*RC y\[7\] 4.637e-06
*END

*R_NET y\[6\] 6.062e-01
*DRIVER Np1/y_reg_6_:Q
*CELL DFFARX1_RVT
*C2_R1_C1 3.031e-01 6.836e-06 3.031e-01 
*LOADS
*RC y\[6\] 3.977e-06
*END

*R_NET y\[5\] 6.194e-01
*DRIVER Np1/y_reg_5_:Q
*CELL DFFARX1_RVT
*C2_R1_C1 3.097e-01 7.152e-06 3.097e-01 
*LOADS
*RC y\[5\] 4.192e-06
*END

*R_NET y\[4\] 6.115e-01
*DRIVER Np1/y_reg_4_:Q
*CELL DFFARX1_RVT
*C2_R1_C1 3.057e-01 6.968e-06 3.057e-01 
*LOADS
*RC y\[4\] 4.066e-06
*END

*R_NET y\[3\] 8.511e-01
*DRIVER Np1/y_reg_3_:Q
*CELL DFFARX1_RVT
*C2_R1_C1 4.255e-01 1.141e-05 4.255e-01 
*LOADS
*RC y\[3\] 7.572e-06
*END

*R_NET y\[2\] 7.182e-01
*DRIVER Np1/y_reg_2_:Q
*CELL DFFARX1_RVT
*C2_R1_C1 3.591e-01 8.535e-06 3.591e-01 
*LOADS
*RC y\[2\] 5.284e-06
*END

*R_NET y\[1\] 6.877e-01
*DRIVER Np1/y_reg_1_:Q
*CELL DFFARX1_RVT
*C2_R1_C1 3.438e-01 7.938e-06 3.438e-01 
*LOADS
*RC y\[1\] 4.834e-06
*END

*R_NET y\[0\] 6.024e-01
*DRIVER Np1/y_reg_0_:Q
*CELL DFFARX1_RVT
*C2_R1_C1 3.012e-01 6.747e-06 3.012e-01 
*LOADS
*RC y\[0\] 3.917e-06
*END

*R_NET Np1/N9 2.641e+00
*DRIVER Np1/U7:Y
*CELL AND2X1_RVT
*C2_R1_C1 1.320e+00 2.856e-05 1.320e+00 
*LOADS
*RC Np1/y_reg_0_:D 3.131e-05
*RC Np1/U13:A1 2.269e-05
*RC Np1/U23:A1 9.131e-06
*END

*R_NET Np1/N10 1.167e+00
*DRIVER Np1/U49:Y
*CELL OA221X1_RVT
*C2_R1_C1 5.834e-01 2.130e-05 5.834e-01 
*LOADS
*RC Np1/y_reg_1_:D 1.617e-05
*END

*R_NET Np1/N11 6.840e-01
*DRIVER Np1/U26:S
*CELL FADDX1_RVT
*C2_R1_C1 3.420e-01 1.009e-05 3.420e-01 
*LOADS
*RC Np1/y_reg_2_:D 6.039e-06
*END

*R_NET Np1/N12 6.456e-01
*DRIVER Np1/U34:S
*CELL FADDX1_RVT
*C2_R1_C1 3.228e-01 9.381e-06 3.228e-01 
*LOADS
*RC Np1/y_reg_3_:D 5.493e-06
*END

*R_NET Np1/N13 6.144e-01
*DRIVER Np1/U36:S
*CELL FADDX1_RVT
*C2_R1_C1 3.072e-01 8.624e-06 3.072e-01 
*LOADS
*RC Np1/y_reg_4_:D 4.961e-06
*END

*R_NET Np1/N14 7.382e-01
*DRIVER Np1/U47:S
*CELL FADDX1_RVT
*C2_R1_C1 3.691e-01 1.111e-05 3.691e-01 
*LOADS
*RC Np1/y_reg_5_:D 6.846e-06
*END

*R_NET Np1/N15 6.148e-01
*DRIVER Np1/U46:SO
*CELL HADDX1_RVT
*C2_R1_C1 3.074e-01 8.508e-06 3.074e-01 
*LOADS
*RC Np1/y_reg_6_:D 4.895e-06
*END

*R_NET Np1/N16 1.520e+00
*DRIVER Np1/U43:Y
*CELL OA21X1_RVT
*C2_R1_C1 7.601e-01 2.760e-05 7.601e-01 
*LOADS
*RC Np1/y_reg_7_:D 2.421e-05
*END

*R_NET Np1/n1 1.357e+00
*DRIVER Np1/U3:Y
*CELL NAND2X0_RVT
*C2_R1_C1 6.787e-01 1.433e-05 6.787e-01 
*LOADS
*RC Np1/U4:A3 6.318e-06
*RC Np1/U8:A 1.091e-05
*END

*R_NET Np1/n2 1.186e+00
*DRIVER Np1/U5:Y
*CELL NAND2X0_RVT
*C2_R1_C1 5.929e-01 1.078e-05 5.929e-01 
*LOADS
*RC Np1/U6:A3 6.949e-06
*RC Np1/U9:A 6.719e-06
*END

*R_NET Np1/n3 1.624e+00
*DRIVER Np1/U16:CO
*CELL FADDX1_RVT
*C2_R1_C1 8.119e-01 1.120e-05 8.119e-01 
*LOADS
*RC Np1/U11:CI 1.676e-05
*END

*R_NET Np1/n4 1.605e+00
*DRIVER Np1/U8:Y
*CELL INVX0_RVT
*C2_R1_C1 8.026e-01 1.095e-05 8.026e-01 
*LOADS
*RC Np1/U12:CI 1.631e-05
*END

*R_NET Np1/n5 7.743e-01
*DRIVER Np1/U14:Y
*CELL AO22X1_RVT
*C2_R1_C1 3.872e-01 1.228e-05 3.872e-01 
*LOADS
*RC Np1/U15:A2 7.651e-06
*END

*R_NET Np1/n6 1.776e+00
*DRIVER Np1/U9:Y
*CELL INVX0_RVT
*C2_R1_C1 8.881e-01 1.450e-05 8.881e-01 
*LOADS
*RC Np1/U16:CI 2.243e-05
*END

*R_NET Np1/n7 1.697e+00
*DRIVER Np1/U12:CO
*CELL FADDX1_RVT
*C2_R1_C1 8.484e-01 1.327e-05 8.484e-01 
*LOADS
*RC Np1/U17:CI 2.018e-05
*END

*R_NET Np1/n8 1.866e+00
*DRIVER Np1/U19:Y
*CELL NAND3X0_RVT
*C2_R1_C1 9.330e-01 2.376e-05 9.330e-01 
*LOADS
*RC Np1/U20:A 1.008e-05
*RC Np1/U22:A5 2.056e-05
*END

*R_NET Np1/n9 1.612e+00
*DRIVER Np1/U25:Y
*CELL AND2X1_RVT
*C2_R1_C1 8.060e-01 1.147e-05 8.060e-01 
*LOADS
*RC Np1/U26:CI 1.712e-05
*END

*R_NET Np1/n10 2.006e+00
*DRIVER Np1/U24:Y
*CELL INVX0_RVT
*C2_R1_C1 1.003e+00 1.000e-05 1.003e+00 
*LOADS
*RC Np1/U26:B 1.931e-05
*END

*R_NET Np1/n11 2.122e+00
*DRIVER Np1/U22:Y
*CELL OA221X1_RVT
*C2_R1_C1 1.061e+00 1.066e-05 1.061e+00 
*LOADS
*RC Np1/U26:A 2.144e-05
*END

*R_NET Np1/n12 1.578e+00
*DRIVER Np1/U18:Y
*CELL AND2X1_RVT
*C2_R1_C1 7.890e-01 1.096e-05 7.890e-01 
*LOADS
*RC Np1/U27:CI 1.623e-05
*END

*R_NET Np1/n13 2.017e+00
*DRIVER Np1/U15:Y
*CELL AND2X1_RVT
*C2_R1_C1 1.008e+00 1.018e-05 1.008e+00 
*LOADS
*RC Np1/U27:B 1.969e-05
*END

*R_NET Np1/n14 2.995e+00
*DRIVER Np1/U10:Y
*CELL AND2X1_RVT
*C2_R1_C1 1.497e+00 1.901e-05 1.497e+00 
*LOADS
*RC Np1/U19:A3 1.732e-05
*RC Np1/U27:A 4.375e-05
*END

*R_NET Np1/n15 1.755e+00
*DRIVER Np1/U13:Y
*CELL NAND3X0_RVT
*C2_R1_C1 8.774e-01 2.050e-05 8.774e-01 
*LOADS
*RC Np1/U15:A1 1.783e-05
*RC Np1/U28:A 9.425e-06
*END

*R_NET Np1/n16 2.802e+00
*DRIVER Np1/U21:Y
*CELL AND2X1_RVT
*C2_R1_C1 1.401e+00 2.442e-05 1.401e+00 
*LOADS
*RC Np1/U22:A3 2.408e-05
*RC Np1/U22:A1 2.279e-05
*RC Np1/U23:A2 1.454e-05
*RC Np1/U31:A2 3.038e-05
*END

*R_NET Np1/n17 7.065e-01
*DRIVER Np1/U32:Y
*CELL AO22X1_RVT
*C2_R1_C1 3.533e-01 1.101e-05 3.533e-01 
*LOADS
*RC Np1/U33:A2 6.608e-06
*END

*R_NET Np1/n18 2.446e+00
*DRIVER Np1/U26:CO
*CELL FADDX1_RVT
*C2_R1_C1 1.223e+00 2.883e-05 1.223e+00 
*LOADS
*RC Np1/U34:CI 5.104e-05
*END

*R_NET Np1/n19 2.084e+00
*DRIVER Np1/U20:Y
*CELL INVX0_RVT
*C2_R1_C1 1.042e+00 1.141e-05 1.042e+00 
*LOADS
*RC Np1/U34:B 2.232e-05
*END

*R_NET Np1/n20 2.123e+00
*DRIVER Np1/U27:S
*CELL FADDX1_RVT
*C2_R1_C1 1.062e+00 1.132e-05 1.062e+00 
*LOADS
*RC Np1/U34:A 2.277e-05
*END

*R_NET Np1/n21 1.597e+00
*DRIVER Np1/U33:Y
*CELL AND2X1_RVT
*C2_R1_C1 7.985e-01 1.086e-05 7.985e-01 
*LOADS
*RC Np1/U35:CI 1.615e-05
*END

*R_NET Np1/n22 2.025e+00
*DRIVER Np1/U29:Y
*CELL AND2X1_RVT
*C2_R1_C1 1.012e+00 1.047e-05 1.012e+00 
*LOADS
*RC Np1/U35:B 2.028e-05
*END

*R_NET Np1/n23 2.140e+00
*DRIVER Np1/U28:Y
*CELL INVX0_RVT
*C2_R1_C1 1.070e+00 1.137e-05 1.070e+00 
*LOADS
*RC Np1/U35:A 2.293e-05
*END

*R_NET Np1/n24 1.622e+00
*DRIVER Np1/U34:CO
*CELL FADDX1_RVT
*C2_R1_C1 8.111e-01 1.132e-05 8.111e-01 
*LOADS
*RC Np1/U36:CI 1.693e-05
*END

*R_NET Np1/n25 2.081e+00
*DRIVER Np1/U35:S
*CELL FADDX1_RVT
*C2_R1_C1 1.040e+00 1.129e-05 1.040e+00 
*LOADS
*RC Np1/U36:B 2.207e-05
*END

*R_NET Np1/n26 2.386e+00
*DRIVER Np1/U27:CO
*CELL FADDX1_RVT
*C2_R1_C1 1.193e+00 1.758e-05 1.193e+00 
*LOADS
*RC Np1/U36:A 3.689e-05
*END

*R_NET Np1/n27 7.979e-01
*DRIVER Np1/U36:CO
*CELL FADDX1_RVT
*C2_R1_C1 3.990e-01 1.225e-05 3.990e-01 
*LOADS
*RC Np1/U37:A 7.941e-06
*END

*R_NET Np1/n28 1.673e+00
*DRIVER Np1/U31:Y
*CELL NAND2X0_RVT
*C2_R1_C1 8.365e-01 1.794e-05 8.365e-01 
*LOADS
*RC Np1/U33:A1 1.609e-05
*RC Np1/U38:A 1.435e-05
*END

*R_NET Np1/n29 3.590e+00
*DRIVER Np1/U17:S
*CELL FADDX1_RVT
*C2_R1_C1 1.795e+00 3.396e-05 1.795e+00 
*LOADS
*RC Np1/U18:A2 1.940e-05
*RC Np1/U25:A2 3.983e-05
*RC Np1/U29:A2 2.932e-05
*RC Np1/U39:A2 3.682e-05
*END

*R_NET Np1/n30 3.880e+00
*DRIVER Np1/U11:CO
*CELL FADDX1_RVT
*C2_R1_C1 1.940e+00 2.686e-05 1.940e+00 
*LOADS
*RC Np1/U13:A2 3.608e-05
*RC Np1/U14:A2 3.553e-05
*RC Np1/U30:A1 2.061e-05
*RC Np1/U32:A1 2.451e-05
*RC Np1/U39:A1 2.159e-05
*END

*R_NET Np1/n31 2.848e+00
*DRIVER Np1/U11:S
*CELL FADDX1_RVT
*C2_R1_C1 1.424e+00 2.008e-05 1.424e+00 
*LOADS
*RC Np1/U10:A2 2.103e-05
*RC Np1/U22:A2 1.156e-05
*RC Np1/U29:A1 2.622e-05
*RC Np1/U40:A2 1.744e-05
*END

*R_NET Np1/n32 3.973e+00
*DRIVER Np1/U17:CO
*CELL FADDX1_RVT
*C2_R1_C1 1.987e+00 2.901e-05 1.987e+00 
*LOADS
*RC Np1/U13:A3 2.435e-05
*RC Np1/U14:A4 1.924e-05
*RC Np1/U30:A2 4.712e-05
*RC Np1/U32:A3 3.140e-05
*RC Np1/U40:A1 3.829e-05
*END

*R_NET Np1/n33 1.617e+00
*DRIVER Np1/U40:Y
*CELL AND2X1_RVT
*C2_R1_C1 8.085e-01 1.168e-05 8.085e-01 
*LOADS
*RC Np1/U42:CI 1.745e-05
*END

*R_NET Np1/n34 2.020e+00
*DRIVER Np1/U39:Y
*CELL AND2X1_RVT
*C2_R1_C1 1.010e+00 1.036e-05 1.010e+00 
*LOADS
*RC Np1/U42:B 2.006e-05
*END

*R_NET Np1/n35 2.092e+00
*DRIVER Np1/U38:Y
*CELL INVX0_RVT
*C2_R1_C1 1.046e+00 1.014e-05 1.046e+00 
*LOADS
*RC Np1/U42:A 2.028e-05
*END

*R_NET Np1/n36 1.483e+00
*DRIVER Np1/U42:CO
*CELL FADDX1_RVT
*C2_R1_C1 7.414e-01 1.509e-05 7.414e-01 
*LOADS
*RC Np1/U43:A2 8.915e-06
*RC Np1/U44:A 1.136e-05
*END

*R_NET Np1/n37 1.945e+00
*DRIVER Np1/U30:Y
*CELL AND2X1_RVT
*C2_R1_C1 9.727e-01 1.677e-05 9.727e-01 
*LOADS
*RC Np1/U31:A1 9.101e-06
*RC Np1/U43:A3 1.477e-05
*RC Np1/U45:A2 1.184e-05
*END

*R_NET Np1/n38 6.723e-01
*DRIVER Np1/U44:Y
*CELL INVX0_RVT
*C2_R1_C1 3.362e-01 8.631e-06 3.362e-01 
*LOADS
*RC Np1/U45:A1 5.444e-06
*END

*R_NET Np1/n39 1.825e+00
*DRIVER Np1/U41:Y
*CELL OA21X1_RVT
*C2_R1_C1 9.125e-01 1.380e-05 9.125e-01 
*LOADS
*RC Np1/U43:A1 1.010e-05
*RC Np1/U46:B0 1.676e-05
*END

*R_NET Np1/n40 1.146e+00
*DRIVER Np1/U45:Y
*CELL AND2X1_RVT
*C2_R1_C1 5.731e-01 9.827e-06 5.731e-01 
*LOADS
*RC Np1/U46:A0 1.054e-05
*END

*R_NET Np1/n41 2.136e+00
*DRIVER Np1/U42:S
*CELL FADDX1_RVT
*C2_R1_C1 1.068e+00 1.300e-05 1.068e+00 
*LOADS
*RC Np1/U41:A3 1.024e-05
*RC Np1/U47:CI 2.075e-05
*END

*R_NET Np1/n42 2.771e+00
*DRIVER Np1/U37:Y
*CELL NBUFFX2_RVT
*C2_R1_C1 1.386e+00 1.404e-05 1.386e+00 
*LOADS
*RC Np1/U41:A2 1.808e-05
*RC Np1/U47:B 2.640e-05
*END

*R_NET Np1/n43 2.891e+00
*DRIVER Np1/U35:CO
*CELL FADDX1_RVT
*C2_R1_C1 1.445e+00 1.599e-05 1.445e+00 
*LOADS
*RC Np1/U41:A1 1.971e-05
*RC Np1/U47:A 2.769e-05
*END

*R_NET Np1/n44 3.936e+00
*DRIVER Np1/U16:S
*CELL FADDX1_RVT
*C2_R1_C1 1.968e+00 2.671e-05 1.968e+00 
*LOADS
*RC Np1/U18:A1 3.595e-05
*RC Np1/U19:A2 3.553e-05
*RC Np1/U21:A1 1.934e-05
*RC Np1/U32:A4 2.507e-05
*RC Np1/U48:A2 3.313e-05
*END

*R_NET Np1/n45 4.166e+00
*DRIVER Np1/U4:Y
*CELL OA21X1_RVT
*C2_R1_C1 2.083e+00 3.152e-05 2.083e+00 
*LOADS
*RC Np1/U7:A1 2.894e-05
*RC Np1/U14:A1 4.390e-05
*RC Np1/U19:A1 4.855e-05
*RC Np1/U22:A4 2.452e-05
*RC Np1/U48:A1 4.310e-05
*END

*R_NET Np1/n46 1.931e+00
*DRIVER Np1/U23:Y
*CELL NAND2X0_RVT
*C2_R1_C1 9.656e-01 2.470e-05 9.656e-01 
*LOADS
*RC Np1/U24:A 1.757e-05
*RC Np1/U49:A5 1.500e-05
*END

*R_NET Np1/n47 2.651e+00
*DRIVER Np1/U12:S
*CELL FADDX1_RVT
*C2_R1_C1 1.325e+00 1.722e-05 1.325e+00 
*LOADS
*RC Np1/U10:A1 1.395e-05
*RC Np1/U21:A2 1.266e-05
*RC Np1/U32:A2 1.701e-05
*RC Np1/U49:A4 1.528e-05
*END

*R_NET Np1/n48 3.228e+00
*DRIVER Np1/U6:Y
*CELL OA21X1_RVT
*C2_R1_C1 1.614e+00 2.645e-05 1.614e+00 
*LOADS
*RC Np1/U7:A2 2.449e-05
*RC Np1/U14:A3 3.839e-05
*RC Np1/U25:A1 1.387e-05
*RC Np1/U49:A2 3.445e-05
*END

*R_NET Np1/n49 1.310e+00
*DRIVER Np1/U48:Y
*CELL AND2X1_RVT
*C2_R1_C1 6.552e-01 1.345e-05 6.552e-01 
*LOADS
*RC Np1/U49:A3 1.049e-05
*RC Np1/U49:A1 9.633e-06
*END
