*SPEF "IEEE 1481-1999"
*DESIGN "TOP"
*DATE "Mon Oct  3 17:19:28 2022"
*VENDOR "SYNOPSYS INC"
*PROGRAM "Synopsys Design Compiler cmos"
*VERSION "O-2018.06-SP4"
*DESIGN_FLOW "SYNTHESIS"
*DIVIDER /
*DELIMITER :
*BUS_DELIMITER []
*T_UNIT 1.0 NS
*C_UNIT 0.0010 PF
*R_UNIT 1000.0 KOHM
*L_UNIT 1.0 HENRY

*PORTS

a\[2\] I *L 0.000e+00 *S 7.898e-03 7.909e-03 *D NBUFFX2_RVT 
a\[1\] I *L 0.000e+00 *S 7.811e-03 7.820e-03 *D NBUFFX2_RVT 
a\[0\] I *L 0.000e+00 *S 6.079e-03 6.070e-03 *D NBUFFX2_RVT 
b\[2\] I *L 0.000e+00 *S 7.612e-03 7.620e-03 *D NBUFFX2_RVT 
b\[1\] I *L 0.000e+00 *S 7.525e-03 7.531e-03 *D NBUFFX2_RVT 
b\[0\] I *L 0.000e+00 *S 6.043e-03 6.033e-03 *D NBUFFX2_RVT 
c\[2\] I *L 0.000e+00 *S 8.366e-03 8.380e-03 *D NBUFFX2_RVT 
c\[1\] I *L 0.000e+00 *S 7.970e-03 7.981e-03 *D NBUFFX2_RVT 
c\[0\] I *L 0.000e+00 *S 5.582e-03 5.567e-03 *D NBUFFX2_RVT 
d\[2\] I *L 0.000e+00 *S 8.100e-03 8.113e-03 *D NBUFFX2_RVT 
d\[1\] I *L 0.000e+00 *S 7.671e-03 7.680e-03 *D NBUFFX2_RVT 
d\[0\] I *L 0.000e+00 *S 5.364e-03 5.347e-03 *D NBUFFX2_RVT 
CLK I *L 0.000e+00 *S 0.000e+00 0.000e+00 
RESETn I *L 0.000e+00 *S 0.000e+00 0.000e+00 
y\[7\] O *L 5.119e-01 *S 6.171e-03 1.234e-02 
y\[6\] O *L 5.119e-01 *S 5.551e-03 1.098e-02 
y\[5\] O *L 5.119e-01 *S 5.669e-03 1.124e-02 
y\[4\] O *L 5.119e-01 *S 5.599e-03 1.109e-02 
y\[3\] O *L 5.119e-01 *S 7.750e-03 1.580e-02 
y\[2\] O *L 5.119e-01 *S 6.557e-03 1.319e-02 
y\[1\] O *L 5.119e-01 *S 6.282e-03 1.259e-02 
y\[0\] O *L 5.119e-01 *S 5.517e-03 1.091e-02 

*R_NET a\[2\] 1.952e+00
*DRIVER a\[2\]
*CELL NBUFFX2_RVT
*C2_R1_C1 9.761e-01 9.132e-06 9.761e-01 
*LOADS
*RC Np1/U17:A 1.708e-05
*END

*R_NET a\[1\] 1.929e+00
*DRIVER a\[1\]
*CELL NBUFFX2_RVT
*C2_R1_C1 9.643e-01 8.563e-06 9.643e-01 
*LOADS
*RC Np1/U12:A 1.594e-05
*END

*R_NET a\[0\] 1.482e+00
*DRIVER a\[0\]
*CELL NBUFFX2_RVT
*C2_R1_C1 7.410e-01 1.705e-05 7.410e-01 
*LOADS
*RC Np1/U3:A2 1.201e-05
*RC Np1/U4:A2 1.423e-05
*END

*R_NET b\[2\] 1.865e+00
*DRIVER b\[2\]
*CELL NBUFFX2_RVT
*C2_R1_C1 9.326e-01 8.159e-06 9.326e-01 
*LOADS
*RC Np1/U17:B 1.475e-05
*END

*R_NET b\[1\] 1.842e+00
*DRIVER b\[1\]
*CELL NBUFFX2_RVT
*C2_R1_C1 9.209e-01 7.565e-06 9.209e-01 
*LOADS
*RC Np1/U12:B 1.362e-05
*END

*R_NET b\[0\] 1.456e+00
*DRIVER b\[0\]
*CELL NBUFFX2_RVT
*C2_R1_C1 7.278e-01 1.633e-05 7.278e-01 
*LOADS
*RC Np1/U3:A1 1.294e-05
*RC Np1/U4:A1 1.230e-05
*END

*R_NET c\[2\] 2.087e+00
*DRIVER c\[2\]
*CELL NBUFFX2_RVT
*C2_R1_C1 1.043e+00 1.274e-05 1.043e+00 
*LOADS
*RC Np1/U11:A 2.440e-05
*END

*R_NET c\[1\] 1.971e+00
*DRIVER c\[1\]
*CELL NBUFFX2_RVT
*C2_R1_C1 9.857e-01 9.661e-06 9.857e-01 
*LOADS
*RC Np1/U16:A 1.813e-05
*END

*R_NET c\[0\] 1.348e+00
*DRIVER c\[0\]
*CELL NBUFFX2_RVT
*C2_R1_C1 6.742e-01 1.447e-05 6.742e-01 
*LOADS
*RC Np1/U5:A2 8.476e-06
*RC Np1/U6:A2 1.044e-05
*END

*R_NET d\[2\] 1.997e+00
*DRIVER d\[2\]
*CELL NBUFFX2_RVT
*C2_R1_C1 9.983e-01 1.167e-05 9.983e-01 
*LOADS
*RC Np1/U11:B 2.161e-05
*END

*R_NET d\[1\] 1.881e+00
*DRIVER d\[1\]
*CELL NBUFFX2_RVT
*C2_R1_C1 9.406e-01 8.613e-06 9.406e-01 
*LOADS
*RC Np1/U16:B 1.562e-05
*END

*R_NET d\[0\] 1.273e+00
*DRIVER d\[0\]
*CELL NBUFFX2_RVT
*C2_R1_C1 6.365e-01 1.266e-05 6.365e-01 
*LOADS
*RC Np1/U5:A1 8.339e-06
*RC Np1/U6:A1 9.018e-06
*END

*R_NET y\[7\] 6.175e-01
*DRIVER Np1/y_reg_7_:Q
*CELL DFFARX1_RVT
*C2_R1_C1 3.088e-01 7.666e-06 3.088e-01 
*LOADS
*RC y\[7\] 4.194e-06
*END

*R_NET y\[6\] 5.484e-01
*DRIVER Np1/y_reg_6_:Q
*CELL DFFARX1_RVT
*C2_R1_C1 2.742e-01 6.836e-06 2.742e-01 
*LOADS
*RC y\[6\] 3.582e-06
*END

*R_NET y\[5\] 5.617e-01
*DRIVER Np1/y_reg_5_:Q
*CELL DFFARX1_RVT
*C2_R1_C1 2.808e-01 7.152e-06 2.808e-01 
*LOADS
*RC y\[5\] 3.779e-06
*END

*R_NET y\[4\] 5.538e-01
*DRIVER Np1/y_reg_4_:Q
*CELL DFFARX1_RVT
*C2_R1_C1 2.769e-01 6.968e-06 2.769e-01 
*LOADS
*RC y\[4\] 3.664e-06
*END

*R_NET y\[3\] 7.934e-01
*DRIVER Np1/y_reg_3_:Q
*CELL DFFARX1_RVT
*C2_R1_C1 3.967e-01 1.141e-05 3.967e-01 
*LOADS
*RC y\[3\] 6.913e-06
*END

*R_NET y\[2\] 6.605e-01
*DRIVER Np1/y_reg_2_:Q
*CELL DFFARX1_RVT
*C2_R1_C1 3.303e-01 8.535e-06 3.303e-01 
*LOADS
*RC y\[2\] 4.791e-06
*END

*R_NET y\[1\] 6.299e-01
*DRIVER Np1/y_reg_1_:Q
*CELL DFFARX1_RVT
*C2_R1_C1 3.150e-01 7.938e-06 3.150e-01 
*LOADS
*RC y\[1\] 4.376e-06
*END

*R_NET y\[0\] 5.447e-01
*DRIVER Np1/y_reg_0_:Q
*CELL DFFARX1_RVT
*C2_R1_C1 2.723e-01 6.747e-06 2.723e-01 
*LOADS
*RC y\[0\] 3.527e-06
*END

*R_NET Np1/N9 2.427e+00
*DRIVER Np1/U7:Y
*CELL AND2X1_RVT
*C2_R1_C1 1.214e+00 2.856e-05 1.214e+00 
*LOADS
*RC Np1/y_reg_0_:D 2.876e-05
*RC Np1/U13:A1 2.052e-05
*RC Np1/U23:A1 8.305e-06
*END

*R_NET Np1/N10 1.115e+00
*DRIVER Np1/U49:Y
*CELL OA221X1_RVT
*C2_R1_C1 5.574e-01 2.130e-05 5.574e-01 
*LOADS
*RC Np1/y_reg_1_:D 1.507e-05
*END

*R_NET Np1/N11 6.322e-01
*DRIVER Np1/U26:S
*CELL FADDX1_RVT
*C2_R1_C1 3.161e-01 1.009e-05 3.161e-01 
*LOADS
*RC Np1/y_reg_2_:D 5.516e-06
*END

*R_NET Np1/N12 5.937e-01
*DRIVER Np1/U34:S
*CELL FADDX1_RVT
*C2_R1_C1 2.969e-01 9.381e-06 2.969e-01 
*LOADS
*RC Np1/y_reg_3_:D 5.007e-06
*END

*R_NET Np1/N13 5.626e-01
*DRIVER Np1/U36:S
*CELL FADDX1_RVT
*C2_R1_C1 2.813e-01 8.624e-06 2.813e-01 
*LOADS
*RC Np1/y_reg_4_:D 4.513e-06
*END

*R_NET Np1/N14 6.863e-01
*DRIVER Np1/U47:S
*CELL FADDX1_RVT
*C2_R1_C1 3.432e-01 1.111e-05 3.432e-01 
*LOADS
*RC Np1/y_reg_5_:D 6.270e-06
*END

*R_NET Np1/N15 5.629e-01
*DRIVER Np1/U46:SO
*CELL HADDX1_RVT
*C2_R1_C1 2.815e-01 8.508e-06 2.815e-01 
*LOADS
*RC Np1/y_reg_6_:D 4.454e-06
*END

*R_NET Np1/N16 1.468e+00
*DRIVER Np1/U43:Y
*CELL OA21X1_RVT
*C2_R1_C1 7.342e-01 2.760e-05 7.342e-01 
*LOADS
*RC Np1/y_reg_7_:D 2.278e-05
*END

*R_NET Np1/n1 1.254e+00
*DRIVER Np1/U3:Y
*CELL NAND2X0_RVT
*C2_R1_C1 6.269e-01 1.433e-05 6.269e-01 
*LOADS
*RC Np1/U4:A3 5.749e-06
*RC Np1/U8:A 1.000e-05
*END

*R_NET Np1/n2 1.082e+00
*DRIVER Np1/U5:Y
*CELL NAND2X0_RVT
*C2_R1_C1 5.412e-01 1.078e-05 5.412e-01 
*LOADS
*RC Np1/U6:A3 6.271e-06
*RC Np1/U9:A 6.119e-06
*END

*R_NET Np1/n3 1.528e+00
*DRIVER Np1/U16:CO
*CELL FADDX1_RVT
*C2_R1_C1 7.638e-01 1.120e-05 7.638e-01 
*LOADS
*RC Np1/U11:CI 1.568e-05
*END

*R_NET Np1/n4 1.509e+00
*DRIVER Np1/U8:Y
*CELL INVX0_RVT
*C2_R1_C1 7.544e-01 1.095e-05 7.544e-01 
*LOADS
*RC Np1/U12:CI 1.526e-05
*END

*R_NET Np1/n5 7.290e-01
*DRIVER Np1/U14:Y
*CELL AO22X1_RVT
*C2_R1_C1 3.645e-01 1.228e-05 3.645e-01 
*LOADS
*RC Np1/U15:A2 7.094e-06
*END

*R_NET Np1/n6 1.680e+00
*DRIVER Np1/U9:Y
*CELL INVX0_RVT
*C2_R1_C1 8.400e-01 1.450e-05 8.400e-01 
*LOADS
*RC Np1/U16:CI 2.104e-05
*END

*R_NET Np1/n7 1.601e+00
*DRIVER Np1/U12:CO
*CELL FADDX1_RVT
*C2_R1_C1 8.003e-01 1.327e-05 8.003e-01 
*LOADS
*RC Np1/U17:CI 1.890e-05
*END

*R_NET Np1/n8 1.744e+00
*DRIVER Np1/U19:Y
*CELL NAND3X0_RVT
*C2_R1_C1 8.722e-01 2.376e-05 8.722e-01 
*LOADS
*RC Np1/U20:A 9.322e-06
*RC Np1/U22:A5 1.874e-05
*END

*R_NET Np1/n9 1.516e+00
*DRIVER Np1/U25:Y
*CELL AND2X1_RVT
*C2_R1_C1 7.578e-01 1.147e-05 7.578e-01 
*LOADS
*RC Np1/U26:CI 1.601e-05
*END

*R_NET Np1/n10 1.892e+00
*DRIVER Np1/U24:Y
*CELL INVX0_RVT
*C2_R1_C1 9.459e-01 1.000e-05 9.459e-01 
*LOADS
*RC Np1/U26:B 1.817e-05
*END

*R_NET Np1/n11 1.996e+00
*DRIVER Np1/U22:Y
*CELL OA221X1_RVT
*C2_R1_C1 9.979e-01 1.066e-05 9.979e-01 
*LOADS
*RC Np1/U26:A 2.010e-05
*END

*R_NET Np1/n12 1.482e+00
*DRIVER Np1/U18:Y
*CELL AND2X1_RVT
*C2_R1_C1 7.409e-01 1.096e-05 7.409e-01 
*LOADS
*RC Np1/U27:CI 1.517e-05
*END

*R_NET Np1/n13 1.903e+00
*DRIVER Np1/U15:Y
*CELL AND2X1_RVT
*C2_R1_C1 9.514e-01 1.018e-05 9.514e-01 
*LOADS
*RC Np1/U27:B 1.854e-05
*END

*R_NET Np1/n14 2.823e+00
*DRIVER Np1/U10:Y
*CELL AND2X1_RVT
*C2_R1_C1 1.411e+00 1.901e-05 1.411e+00 
*LOADS
*RC Np1/U19:A3 1.618e-05
*RC Np1/U27:A 4.106e-05
*END

*R_NET Np1/n15 1.621e+00
*DRIVER Np1/U13:Y
*CELL NAND3X0_RVT
*C2_R1_C1 8.107e-01 2.050e-05 8.107e-01 
*LOADS
*RC Np1/U15:A1 1.611e-05
*RC Np1/U28:A 8.660e-06
*END

*R_NET Np1/n16 2.614e+00
*DRIVER Np1/U21:Y
*CELL AND2X1_RVT
*C2_R1_C1 1.307e+00 2.442e-05 1.307e+00 
*LOADS
*RC Np1/U22:A3 2.193e-05
*RC Np1/U22:A1 2.103e-05
*RC Np1/U23:A2 1.346e-05
*RC Np1/U31:A2 2.814e-05
*END

*R_NET Np1/n17 6.613e-01
*DRIVER Np1/U32:Y
*CELL AO22X1_RVT
*C2_R1_C1 3.306e-01 1.101e-05 3.306e-01 
*LOADS
*RC Np1/U33:A2 6.109e-06
*END

*R_NET Np1/n18 2.350e+00
*DRIVER Np1/U26:CO
*CELL FADDX1_RVT
*C2_R1_C1 1.175e+00 2.883e-05 1.175e+00 
*LOADS
*RC Np1/U34:CI 4.826e-05
*END

*R_NET Np1/n19 1.970e+00
*DRIVER Np1/U20:Y
*CELL INVX0_RVT
*C2_R1_C1 9.850e-01 1.141e-05 9.850e-01 
*LOADS
*RC Np1/U34:B 2.102e-05
*END

*R_NET Np1/n20 1.997e+00
*DRIVER Np1/U27:S
*CELL FADDX1_RVT
*C2_R1_C1 9.984e-01 1.132e-05 9.984e-01 
*LOADS
*RC Np1/U34:A 2.134e-05
*END

*R_NET Np1/n21 1.501e+00
*DRIVER Np1/U33:Y
*CELL AND2X1_RVT
*C2_R1_C1 7.503e-01 1.086e-05 7.503e-01 
*LOADS
*RC Np1/U35:CI 1.511e-05
*END

*R_NET Np1/n22 1.911e+00
*DRIVER Np1/U29:Y
*CELL AND2X1_RVT
*C2_R1_C1 9.555e-01 1.047e-05 9.555e-01 
*LOADS
*RC Np1/U35:B 1.909e-05
*END

*R_NET Np1/n23 2.013e+00
*DRIVER Np1/U28:Y
*CELL INVX0_RVT
*C2_R1_C1 1.007e+00 1.137e-05 1.007e+00 
*LOADS
*RC Np1/U35:A 2.150e-05
*END

*R_NET Np1/n24 1.526e+00
*DRIVER Np1/U34:CO
*CELL FADDX1_RVT
*C2_R1_C1 7.630e-01 1.132e-05 7.630e-01 
*LOADS
*RC Np1/U36:CI 1.584e-05
*END

*R_NET Np1/n25 1.967e+00
*DRIVER Np1/U35:S
*CELL FADDX1_RVT
*C2_R1_C1 9.834e-01 1.129e-05 9.834e-01 
*LOADS
*RC Np1/U36:B 2.079e-05
*END

*R_NET Np1/n26 2.260e+00
*DRIVER Np1/U27:CO
*CELL FADDX1_RVT
*C2_R1_C1 1.130e+00 1.758e-05 1.130e+00 
*LOADS
*RC Np1/U36:A 3.467e-05
*END

*R_NET Np1/n27 7.455e-01
*DRIVER Np1/U36:CO
*CELL FADDX1_RVT
*C2_R1_C1 3.727e-01 1.225e-05 3.727e-01 
*LOADS
*RC Np1/U37:A 7.298e-06
*END

*R_NET Np1/n28 1.540e+00
*DRIVER Np1/U31:Y
*CELL NAND2X0_RVT
*C2_R1_C1 7.698e-01 1.794e-05 7.698e-01 
*LOADS
*RC Np1/U33:A1 1.450e-05
*RC Np1/U38:A 1.315e-05
*END

*R_NET Np1/n29 3.409e+00
*DRIVER Np1/U17:S
*CELL FADDX1_RVT
*C2_R1_C1 1.704e+00 3.396e-05 1.704e+00 
*LOADS
*RC Np1/U18:A2 1.827e-05
*RC Np1/U25:A2 3.752e-05
*RC Np1/U29:A2 2.762e-05
*RC Np1/U39:A2 3.469e-05
*END

*R_NET Np1/n30 3.534e+00
*DRIVER Np1/U11:CO
*CELL FADDX1_RVT
*C2_R1_C1 1.767e+00 2.686e-05 1.767e+00 
*LOADS
*RC Np1/U13:A2 3.266e-05
*RC Np1/U14:A2 3.233e-05
*RC Np1/U30:A1 1.861e-05
*RC Np1/U32:A1 2.216e-05
*RC Np1/U39:A1 1.950e-05
*END

*R_NET Np1/n31 2.648e+00
*DRIVER Np1/U11:S
*CELL FADDX1_RVT
*C2_R1_C1 1.324e+00 2.008e-05 1.324e+00 
*LOADS
*RC Np1/U10:A2 1.940e-05
*RC Np1/U22:A2 1.064e-05
*RC Np1/U29:A1 2.384e-05
*RC Np1/U40:A2 1.609e-05
*END

*R_NET Np1/n32 3.679e+00
*DRIVER Np1/U17:CO
*CELL FADDX1_RVT
*C2_R1_C1 1.839e+00 2.901e-05 1.839e+00 
*LOADS
*RC Np1/U13:A3 2.249e-05
*RC Np1/U14:A4 1.769e-05
*RC Np1/U30:A2 4.357e-05
*RC Np1/U32:A3 2.882e-05
*RC Np1/U40:A1 3.499e-05
*END

*R_NET Np1/n33 1.521e+00
*DRIVER Np1/U40:Y
*CELL AND2X1_RVT
*C2_R1_C1 7.604e-01 1.168e-05 7.604e-01 
*LOADS
*RC Np1/U42:CI 1.632e-05
*END

*R_NET Np1/n34 1.907e+00
*DRIVER Np1/U39:Y
*CELL AND2X1_RVT
*C2_R1_C1 9.533e-01 1.036e-05 9.533e-01 
*LOADS
*RC Np1/U42:B 1.888e-05
*END

*R_NET Np1/n35 1.965e+00
*DRIVER Np1/U38:Y
*CELL INVX0_RVT
*C2_R1_C1 9.826e-01 1.014e-05 9.826e-01 
*LOADS
*RC Np1/U42:A 1.900e-05
*END

*R_NET Np1/n36 1.382e+00
*DRIVER Np1/U42:CO
*CELL FADDX1_RVT
*C2_R1_C1 6.908e-01 1.509e-05 6.908e-01 
*LOADS
*RC Np1/U43:A2 8.244e-06
*RC Np1/U44:A 1.047e-05
*END

*R_NET Np1/n37 1.783e+00
*DRIVER Np1/U30:Y
*CELL AND2X1_RVT
*C2_R1_C1 8.917e-01 1.677e-05 8.917e-01 
*LOADS
*RC Np1/U31:A1 8.207e-06
*RC Np1/U43:A3 1.341e-05
*RC Np1/U45:A2 1.085e-05
*END

*R_NET Np1/n38 5.945e-01
*DRIVER Np1/U44:Y
*CELL INVX0_RVT
*C2_R1_C1 2.972e-01 8.631e-06 2.972e-01 
*LOADS
*RC Np1/U45:A1 4.772e-06
*END

*R_NET Np1/n39 1.706e+00
*DRIVER Np1/U41:Y
*CELL OA21X1_RVT
*C2_R1_C1 8.531e-01 1.380e-05 8.531e-01 
*LOADS
*RC Np1/U43:A1 9.291e-06
*RC Np1/U46:B0 1.567e-05
*END

*R_NET Np1/n40 1.064e+00
*DRIVER Np1/U45:Y
*CELL AND2X1_RVT
*C2_R1_C1 5.321e-01 9.827e-06 5.321e-01 
*LOADS
*RC Np1/U46:A0 9.739e-06
*END

*R_NET Np1/n41 1.989e+00
*DRIVER Np1/U42:S
*CELL FADDX1_RVT
*C2_R1_C1 9.945e-01 1.300e-05 9.945e-01 
*LOADS
*RC Np1/U41:A3 9.405e-06
*RC Np1/U47:CI 1.934e-05
*END

*R_NET Np1/n42 2.610e+00
*DRIVER Np1/U37:Y
*CELL NBUFFX2_RVT
*C2_R1_C1 1.305e+00 1.404e-05 1.305e+00 
*LOADS
*RC Np1/U41:A2 1.688e-05
*RC Np1/U47:B 2.484e-05
*END

*R_NET Np1/n43 2.709e+00
*DRIVER Np1/U35:CO
*CELL FADDX1_RVT
*C2_R1_C1 1.355e+00 1.599e-05 1.355e+00 
*LOADS
*RC Np1/U41:A1 1.823e-05
*RC Np1/U47:A 2.592e-05
*END

*R_NET Np1/n44 3.604e+00
*DRIVER Np1/U16:S
*CELL FADDX1_RVT
*C2_R1_C1 1.802e+00 2.671e-05 1.802e+00 
*LOADS
*RC Np1/U18:A1 3.258e-05
*RC Np1/U19:A2 3.229e-05
*RC Np1/U21:A1 1.753e-05
*RC Np1/U32:A4 2.286e-05
*RC Np1/U48:A2 3.038e-05
*END

*R_NET Np1/n45 3.793e+00
*DRIVER Np1/U4:Y
*CELL OA21X1_RVT
*C2_R1_C1 1.897e+00 3.152e-05 1.897e+00 
*LOADS
*RC Np1/U7:A1 2.619e-05
*RC Np1/U14:A1 3.978e-05
*RC Np1/U19:A1 4.383e-05
*RC Np1/U22:A4 2.236e-05
*RC Np1/U48:A1 3.900e-05
*END

*R_NET Np1/n46 1.810e+00
*DRIVER Np1/U23:Y
*CELL NAND2X0_RVT
*C2_R1_C1 9.048e-01 2.470e-05 9.048e-01 
*LOADS
*RC Np1/U24:A 1.628e-05
*RC Np1/U49:A5 1.370e-05
*END

*R_NET Np1/n47 2.427e+00
*DRIVER Np1/U12:S
*CELL FADDX1_RVT
*C2_R1_C1 1.213e+00 1.722e-05 1.213e+00 
*LOADS
*RC Np1/U10:A1 1.258e-05
*RC Np1/U21:A2 1.159e-05
*RC Np1/U32:A2 1.550e-05
*RC Np1/U49:A4 1.392e-05
*END

*R_NET Np1/n48 3.008e+00
*DRIVER Np1/U6:Y
*CELL OA21X1_RVT
*C2_R1_C1 1.504e+00 2.645e-05 1.504e+00 
*LOADS
*RC Np1/U7:A2 2.266e-05
*RC Np1/U14:A3 3.521e-05
*RC Np1/U25:A1 1.266e-05
*RC Np1/U49:A2 3.180e-05
*END

*R_NET Np1/n49 1.194e+00
*DRIVER Np1/U48:Y
*CELL AND2X1_RVT
*C2_R1_C1 5.972e-01 1.345e-05 5.972e-01 
*LOADS
*RC Np1/U49:A3 9.306e-06
*RC Np1/U49:A1 8.727e-06
*END
