*SPEF "1481-1998"
*DESIGN "floating_MAC_16"
*DATE "Mon Dec 19 22:37:21 2022"
*VENDOR "Synopsys, Inc."
*PROGRAM "icc_shell"
*VERSION "O-2018.06-SP5"
*DESIGN_FLOW "PIN_CAP NONE"
*DIVIDER /
*DELIMITER :
*BUS_DELIMITER [ ]
*T_UNIT 1 NS
*C_UNIT 1 FF
*R_UNIT 1 OHM
*L_UNIT 1 HENRY

*NAME_MAP
*1 data_in_A[1]
*2 data_in_A[0]
*3 VDD
*4 VSS
*5 data_in_A[9]
*6 data_in_A[8]
*7 data_in_A[7]
*8 data_in_A[6]
*9 data_in_A[5]
*10 data_in_A[4]
*11 data_in_A[3]
*12 data_in_A[2]
*13 data_in_B[1]
*14 data_in_B[0]
*15 data_in_A[15]
*16 data_in_A[14]
*17 data_in_A[13]
*18 data_in_A[12]
*19 data_in_A[11]
*20 data_in_A[10]
*21 data_in_B[9]
*22 data_in_B[8]
*23 data_in_B[7]
*24 data_in_B[6]
*25 data_in_B[5]
*26 data_in_B[4]
*27 data_in_B[3]
*28 data_in_B[2]
*29 data_in_C[1]
*30 data_in_C[0]
*31 data_in_B[15]
*32 data_in_B[14]
*33 data_in_B[13]
*34 data_in_B[12]
*35 data_in_B[11]
*36 data_in_B[10]
*37 data_in_C[9]
*38 data_in_C[8]
*39 data_in_C[7]
*40 data_in_C[6]
*41 data_in_C[5]
*42 data_in_C[4]
*43 data_in_C[3]
*44 data_in_C[2]
*45 data_out[1]
*46 data_out[0]
*47 data_in_C[15]
*48 data_in_C[14]
*49 data_in_C[13]
*50 data_in_C[12]
*51 data_in_C[11]
*52 data_in_C[10]
*53 data_out[9]
*54 data_out[8]
*55 data_out[7]
*56 data_out[6]
*57 data_out[5]
*58 data_out[4]
*59 data_out[3]
*60 data_out[2]
*61 RESETn
*62 CLK
*63 data_out[15]
*64 data_out[14]
*65 data_out[13]
*66 data_out[12]
*67 data_out[11]
*68 data_out[10]
*69 ADD/N60
*70 ADD/add_0_root_add_143_ni/U2
*71 ADD/U17
*72 ADD/N41
*73 ADD/U125
*74 ADD/add_0_root_add_143_ni/carry\[9\]
*75 ADD/add_0_root_add_143_ni/U1_1_8
*76 ADD/N50
*77 ADD/add_0_root_add_143_ni/U1
*78 ADD/add_0_root_add_143_ni/U1_1_1
*79 ADD/U116
*80 ADD/N51
*81 ADD/U26
*82 ADD/N52
*83 ADD/U25
*84 ADD/N49
*85 ADD/U117
*86 ADD/add_0_root_add_143_ni/carry\[2\]
*87 ADD/add_0_root_add_143_ni/U1_1_2
*88 ADD/N53
*89 ADD/U24
*90 ADD/N48
*91 ADD/U118
*92 ADD/add_0_root_add_143_ni/carry\[3\]
*93 ADD/add_0_root_add_143_ni/U1_1_3
*94 ADD/N54
*95 ADD/U23
*96 ADD/N47
*97 ADD/U119
*98 ADD/add_0_root_add_143_ni/carry\[4\]
*99 ADD/add_0_root_add_143_ni/U1_1_4
*100 ADD/N55
*101 ADD/U22
*102 ADD/N46
*103 ADD/U120
*104 ADD/add_0_root_add_143_ni/carry\[5\]
*105 ADD/add_0_root_add_143_ni/U1_1_5
*106 ADD/N56
*107 ADD/U21
*108 ADD/N45
*109 ADD/U121
*110 ADD/add_0_root_add_143_ni/carry\[6\]
*111 ADD/add_0_root_add_143_ni/U1_1_6
*112 ADD/N57
*113 ADD/U20
*114 ADD/N44
*115 ADD/U122
*116 ADD/add_0_root_add_143_ni/carry\[7\]
*117 ADD/add_0_root_add_143_ni/U1_1_7
*118 ADD/N58
*119 ADD/U19
*120 ADD/N43
*121 ADD/U123
*122 ADD/add_0_root_add_143_ni/carry\[8\]
*123 ADD/N59
*124 ADD/U18
*125 ADD/N42
*126 ADD/U124
*127 ADD/N29
*128 ADD/add_0_root_add_138_ni/U2
*129 ADD/U27
*130 ADD/N10
*131 ADD/U135
*132 ADD/add_0_root_add_138_ni/carry\[9\]
*133 ADD/add_0_root_add_138_ni/U1_1_8
*134 ADD/N19
*135 ADD/add_0_root_add_138_ni/U1
*136 ADD/add_0_root_add_138_ni/U1_1_1
*137 ADD/U126
*138 ADD/N20
*139 ADD/U36
*140 ADD/N21
*141 ADD/U35
*142 ADD/N18
*143 ADD/U127
*144 ADD/add_0_root_add_138_ni/carry\[2\]
*145 ADD/add_0_root_add_138_ni/U1_1_2
*146 ADD/N22
*147 ADD/U34
*148 ADD/N17
*149 ADD/U128
*150 ADD/add_0_root_add_138_ni/carry\[3\]
*151 ADD/add_0_root_add_138_ni/U1_1_3
*152 ADD/N23
*153 ADD/U33
*154 ADD/N16
*155 ADD/U129
*156 ADD/add_0_root_add_138_ni/carry\[4\]
*157 ADD/add_0_root_add_138_ni/U1_1_4
*158 ADD/N24
*159 ADD/U32
*160 ADD/N15
*161 ADD/U130
*162 ADD/add_0_root_add_138_ni/carry\[5\]
*163 ADD/add_0_root_add_138_ni/U1_1_5
*164 ADD/N25
*165 ADD/U31
*166 ADD/N14
*167 ADD/U131
*168 ADD/add_0_root_add_138_ni/carry\[6\]
*169 ADD/add_0_root_add_138_ni/U1_1_6
*170 ADD/N26
*171 ADD/U30
*172 ADD/N13
*173 ADD/U132
*174 ADD/add_0_root_add_138_ni/carry\[7\]
*175 ADD/add_0_root_add_138_ni/U1_1_7
*176 ADD/N27
*177 ADD/U29
*178 ADD/N12
*179 ADD/U133
*180 ADD/add_0_root_add_138_ni/carry\[8\]
*181 ADD/N28
*182 ADD/U28
*183 ADD/N11
*184 ADD/U134
*185 ADD/add_157/carry\[1\]
*186 ADD/add_157/U2
*187 ADD/add_157/U1_1
*188 ADD/frac_01\[0\]
*189 ADD/add_157/U1
*190 ADD/U175
*191 ADD/frac_01_reg\[0\]
*192 ADD/N81
*193 ADD/U156
*194 ADD/N91
*195 ADD/U68
*196 ADD/frac_01\[1\]
*197 ADD/U184
*198 ADD/frac_01_reg\[1\]
*199 ADD/add_157/carry\[2\]
*200 ADD/add_157/U1_2
*201 ADD/N82
*202 ADD/U162
*203 ADD/N92
*204 ADD/U67
*205 ADD/frac_01\[2\]
*206 ADD/U174
*207 ADD/frac_01_reg\[2\]
*208 ADD/add_157/carry\[3\]
*209 ADD/add_157/U1_3
*210 ADD/N83
*211 ADD/U165
*212 ADD/N93
*213 ADD/U66
*214 ADD/frac_01\[3\]
*215 ADD/U183
*216 ADD/frac_01_reg\[3\]
*217 ADD/add_157/carry\[4\]
*218 ADD/add_157/U1_4
*219 ADD/N84
*220 ADD/U167
*221 ADD/N94
*222 ADD/U65
*223 ADD/frac_01\[4\]
*224 ADD/U177
*225 ADD/frac_01_reg\[4\]
*226 ADD/add_157/carry\[5\]
*227 ADD/add_157/U1_5
*228 ADD/N85
*229 ADD/U168
*230 ADD/N95
*231 ADD/U64
*232 ADD/frac_01\[5\]
*233 ADD/U187
*234 ADD/frac_01_reg\[5\]
*235 ADD/add_157/carry\[6\]
*236 ADD/add_157/U1_6
*237 ADD/N86
*238 ADD/U169
*239 ADD/N96
*240 ADD/U63
*241 ADD/frac_01\[6\]
*242 ADD/U106
*243 ADD/frac_01_reg\[6\]
*244 ADD/add_157/carry\[7\]
*245 ADD/add_157/U1_7
*246 ADD/N87
*247 ADD/U170
*248 ADD/N97
*249 ADD/U62
*250 ADD/frac_01\[7\]
*251 ADD/U186
*252 ADD/frac_01_reg\[7\]
*253 ADD/add_157/carry\[8\]
*254 ADD/add_157/U1_8
*255 ADD/N88
*256 ADD/U171
*257 ADD/N98
*258 ADD/U61
*259 ADD/frac_01\[8\]
*260 ADD/U179
*261 ADD/frac_01_reg\[8\]
*262 ADD/add_157/carry\[9\]
*263 ADD/add_157/U1_9
*264 ADD/N89
*265 ADD/U172
*266 ADD/N99
*267 ADD/U60
*268 ADD/frac_01\[9\]
*269 ADD/U110
*270 ADD/frac_01_reg\[9\]
*271 ADD/N101
*272 ADD/U58
*273 ADD/N90
*274 ADD/U173
*275 ADD/N100
*276 ADD/U59
*277 ADD/add_161/carry\[1\]
*278 ADD/add_161/U2
*279 ADD/add_161/U1_1
*280 ADD/frac_02\[0\]
*281 ADD/add_161/U1
*282 ADD/U149
*283 ADD/frac_02_reg\[0\]
*284 ADD/N109
*285 ADD/U182
*286 ADD/N119
*287 ADD/frac_02\[1\]
*288 ADD/U157
*289 ADD/frac_02_reg\[1\]
*290 ADD/add_161/carry\[2\]
*291 ADD/add_161/U1_2
*292 ADD/N110
*293 ADD/U191
*294 ADD/N120
*295 ADD/frac_02\[2\]
*296 ADD/U91
*297 ADD/frac_02_reg\[2\]
*298 ADD/add_161/carry\[3\]
*299 ADD/add_161/U1_3
*300 ADD/N111
*301 ADD/U193
*302 ADD/N121
*303 ADD/frac_02\[3\]
*304 ADD/U84
*305 ADD/frac_02_reg\[3\]
*306 ADD/add_161/carry\[4\]
*307 ADD/add_161/U1_4
*308 ADD/N112
*309 ADD/U195
*310 ADD/N122
*311 ADD/frac_02\[4\]
*312 ADD/U92
*313 ADD/frac_02_reg\[4\]
*314 ADD/add_161/carry\[5\]
*315 ADD/add_161/U1_5
*316 ADD/N113
*317 ADD/U197
*318 ADD/N123
*319 ADD/frac_02\[5\]
*320 ADD/U105
*321 ADD/U85
*322 ADD/frac_02_reg\[5\]
*323 ADD/add_161/carry\[6\]
*324 ADD/add_161/U1_6
*325 ADD/N114
*326 ADD/U199
*327 ADD/N124
*328 ADD/frac_02\[6\]
*329 ADD/U151
*330 ADD/frac_02_reg\[6\]
*331 ADD/add_161/carry\[7\]
*332 ADD/add_161/U1_7
*333 ADD/N115
*334 ADD/U200
*335 ADD/N125
*336 ADD/frac_02\[7\]
*337 ADD/U158
*338 ADD/frac_02_reg\[7\]
*339 ADD/add_161/carry\[8\]
*340 ADD/add_161/U1_8
*341 ADD/N116
*342 ADD/U201
*343 ADD/N126
*344 ADD/frac_02\[8\]
*345 ADD/U153
*346 ADD/frac_02_reg\[8\]
*347 ADD/add_161/carry\[9\]
*348 ADD/add_161/U1_9
*349 ADD/N117
*350 ADD/U202
*351 ADD/N127
*352 ADD/frac_02\[9\]
*353 ADD/U111
*354 ADD/frac_02_reg\[9\]
*355 ADD/N129
*356 ADD/N118
*357 ADD/U203
*358 ADD/N128
*359 ADD/N176
*360 ADD/U204
*361 ADD/expo_temp_out_reg\[6\]
*362 ADD/expo_temp_in\[5\]
*363 ADD/expo_temp_in_reg\[5\]
*364 ADD/U49
*365 ADD/n37
*366 ADD/U54
*367 ADD/U53
*368 ADD/U52
*369 ADD/U51
*370 ADD/U50
*371 ADD/n118
*372 ADD/U76
*373 ADD/n63
*374 ADD/U147
*375 ADD/n117
*376 ADD/U190
*377 ADD/U189
*378 ADD/n116
*379 ADD/U181
*380 ADD/U180
*381 ADD/n64
*382 ADD/U148
*383 ADD/U107
*384 ADD/n115
*385 ADD/U93
*386 ADD/n8
*387 ADD/U82
*388 ADD/U69
*389 ADD/n114
*390 ADD/U198
*391 ADD/n113
*392 ADD/U188
*393 ADD/U88
*394 ADD/N104
*395 ADD/U196
*396 ADD/U178
*397 ADD/sub_161/U2_2
*398 ADD/n9
*399 ADD/U78
*400 ADD/n112
*401 ADD/n111
*402 ADD/U5
*403 ADD/n11
*404 ADD/U80
*405 ADD/n110
*406 ADD/U87
*407 ADD/n106
*408 ADD/U194
*409 ADD/n65
*410 ADD/U75
*411 ADD/U192
*412 ADD/U185
*413 ADD/U176
*414 ADD/U108
*415 ADD/n109
*416 ADD/U14
*417 ADD/n105
*418 ADD/n104
*419 ADD/n101
*420 ADD/n103
*421 ADD/n100
*422 ADD/n99
*423 ADD/n98
*424 ADD/N105
*425 ADD/sub_161/U2_3
*426 ADD/n107
*427 ADD/U15
*428 ADD/n2
*429 ADD/U6
*430 ADD/n97
*431 ADD/n96
*432 ADD/n95
*433 ADD/n94
*434 ADD/n102
*435 ADD/n93
*436 ADD/n92
*437 ADD/n91
*438 ADD/U94
*439 ADD/n60
*440 ADD/U145
*441 ADD/n90
*442 ADD/U161
*443 ADD/U160
*444 ADD/n89
*445 ADD/U155
*446 ADD/U154
*447 ADD/n61
*448 ADD/U146
*449 ADD/n88
*450 ADD/U166
*451 ADD/U48
*452 ADD/n7
*453 ADD/U164
*454 ADD/U16
*455 ADD/n87
*456 ADD/U86
*457 ADD/n85
*458 ADD/U12
*459 ADD/n83
*460 ADD/n82
*461 ADD/U83
*462 ADD/N76
*463 ADD/U159
*464 ADD/U13
*465 ADD/sub_157/U2_2
*466 ADD/n77
*467 ADD/n76
*468 ADD/U163
*469 ADD/n14
*470 ADD/U152
*471 ADD/n62
*472 ADD/U79
*473 ADD/U77
*474 ADD/U150
*475 ADD/U109
*476 ADD/U90
*477 ADD/U89
*478 ADD/U81
*479 ADD/n13
*480 ADD/n73
*481 ADD/n72
*482 ADD/N77
*483 ADD/sub_157/U2_3
*484 ADD/n10
*485 ADD/n71
*486 ADD/n86
*487 ADD/n3
*488 ADD/U8
*489 ADD/n80
*490 ADD/U57
*491 ADD/n70
*492 ADD/n69
*493 ADD/n68
*494 ADD/n12
*495 ADD/n75
*496 ADD/n74
*497 ADD/n84
*498 ADD/n67
*499 ADD/n66
*500 ADD/n57
*501 ADD/U144
*502 ADD/U95
*503 ADD/expo_01\[5\]
*504 ADD/U136
*505 ADD/U112
*506 ADD/U9
*507 ADD/expo_01_reg\[5\]
*508 ADD/expo_01\[4\]
*509 ADD/expo_01_reg\[4\]
*510 ADD/sub_157/U2_4
*511 ADD/U70
*512 ADD/n55
*513 ADD/U143
*514 ADD/U140
*515 ADD/n54
*516 ADD/U142
*517 ADD/n58
*518 ADD/n56
*519 ADD/U139
*520 ADD/n53
*521 ADD/U141
*522 ADD/n41
*523 ADD/expo_02_reg\[1\]
*524 ADD/sub_157/U2_1
*525 ADD/expo_01\[1\]
*526 ADD/expo_01_reg\[1\]
*527 ADD/U73
*528 ADD/n40
*529 ADD/U113
*530 ADD/expo_02_reg\[0\]
*531 ADD/expo_01\[0\]
*532 ADD/expo_01_reg\[0\]
*533 ADD/U74
*534 ADD/expo_01\[2\]
*535 ADD/U138
*536 ADD/expo_01_reg\[2\]
*537 ADD/U72
*538 ADD/n42
*539 ADD/expo_02_reg\[2\]
*540 ADD/n52
*541 ADD/U137
*542 ADD/n51
*543 ADD/n43
*544 ADD/expo_02_reg\[3\]
*545 ADD/expo_01\[3\]
*546 ADD/expo_01_reg\[3\]
*547 ADD/U71
*548 ADD/n59
*549 ADD/n44
*550 ADD/expo_02_reg\[4\]
*551 data_out_mul\[9\]
*552 MUL/frac_temp_out_reg\[9\]
*553 data_out_mul\[8\]
*554 MUL/frac_temp_out_reg\[8\]
*555 data_out_mul\[7\]
*556 MUL/frac_temp_out_reg\[7\]
*557 data_out_mul\[6\]
*558 MUL/frac_temp_out_reg\[6\]
*559 data_out_mul\[5\]
*560 MUL/frac_temp_out_reg\[5\]
*561 data_out_mul\[4\]
*562 MUL/frac_temp_out_reg\[4\]
*563 data_out_mul\[3\]
*564 MUL/frac_temp_out_reg\[3\]
*565 data_out_mul\[2\]
*566 MUL/frac_temp_out_reg\[2\]
*567 data_out_mul\[1\]
*568 MUL/frac_temp_out_reg\[1\]
*569 data_out_mul\[0\]
*570 MUL/frac_temp_out_reg\[0\]
*571 data_out_C\[9\]
*572 MUL/U30
*573 MUL/data_buffer_reg\[2\]\[9\]
*574 data_out_C\[8\]
*575 MUL/U27
*576 MUL/data_buffer_reg\[2\]\[8\]
*577 data_out_C\[7\]
*578 MUL/U24
*579 MUL/data_buffer_reg\[2\]\[7\]
*580 data_out_C\[6\]
*581 MUL/U21
*582 MUL/data_buffer_reg\[2\]\[6\]
*583 data_out_C\[5\]
*584 MUL/U18
*585 MUL/data_buffer_reg\[2\]\[5\]
*586 data_out_C\[4\]
*587 MUL/U15
*588 MUL/data_buffer_reg\[2\]\[4\]
*589 data_out_C\[3\]
*590 MUL/U12
*591 MUL/data_buffer_reg\[2\]\[3\]
*592 data_out_C\[2\]
*593 MUL/U9
*594 MUL/data_buffer_reg\[2\]\[2\]
*595 data_out_C\[1\]
*596 MUL/U6
*597 MUL/data_buffer_reg\[2\]\[1\]
*598 data_out_C\[0\]
*599 MUL/U3
*600 MUL/data_buffer_reg\[2\]\[0\]
*601 ADD/sub_161/carry\[1\]
*602 ADD/U115
*603 ADD/sub_161/U2_1
*604 ADD/n45
*605 ADD/expo_02\[0\]
*606 ADD/N107
*607 ADD/U114
*608 ADD/sub_161/carry\[5\]
*609 ADD/U11
*610 ADD/sub_161/U2_4
*611 ADD/n50
*612 ADD/sub_157/carry\[1\]
*613 ADD/sub_157/carry\[5\]
*614 ADD/N79
*615 ADD/n27
*616 ADD/U4
*617 ADD/n26
*618 ADD/U3
*619 ADD/n24
*620 ADD/n25
*621 ADD/n22
*622 ADD/n23
*623 ADD/n20
*624 ADD/n21
*625 ADD/n19
*626 ADD/n18
*627 ADD/frac_temp_out_reg\[2\]
*628 ADD/expo_temp_out_reg\[1\]
*629 ADD/expo_temp_out_reg\[2\]
*630 ADD/expo_temp_out_reg\[3\]
*631 ADD/expo_temp_out_reg\[4\]
*632 ADD/expo_temp_out_reg\[0\]
*633 ADD/frac_temp_out_reg\[0\]
*634 ADD/frac_temp_out_reg\[1\]
*635 ADD/sign_01_reg
*636 ADD/sign_02_reg
*637 ADD/sign_temp_reg
*638 ADD/expo_temp_in_reg\[4\]
*639 ADD/expo_temp_in_reg\[0\]
*640 ADD/expo_temp_in_reg\[1\]
*641 ADD/expo_temp_in_reg\[2\]
*642 ADD/expo_temp_in_reg\[3\]
*643 ADD/frac_temp_in_reg\[10\]
*644 ADD/frac_temp_in_reg\[9\]
*645 ADD/frac_temp_in_reg\[8\]
*646 ADD/frac_temp_in_reg\[7\]
*647 ADD/frac_temp_in_reg\[6\]
*648 ADD/frac_temp_in_reg\[5\]
*649 ADD/frac_temp_in_reg\[4\]
*650 ADD/frac_temp_in_reg\[3\]
*651 ADD/frac_temp_out_reg\[7\]
*652 ADD/frac_temp_out_reg\[8\]
*653 ADD/frac_temp_out_reg\[9\]
*654 ADD/sign_out_reg
*655 ADD/expo_temp_out_reg\[5\]
*656 ADD/frac_temp_in_reg\[2\]
*657 ADD/frac_temp_in_reg\[1\]
*658 ADD/frac_temp_in_reg\[0\]
*659 ADD/frac_temp_out_reg\[3\]
*660 ADD/frac_temp_out_reg\[4\]
*661 ADD/frac_temp_out_reg\[5\]
*662 ADD/frac_temp_out_reg\[6\]
*663 MUL/U1
*664 MUL/U4
*665 MUL/U46
*666 MUL/U42
*667 MUL/U37
*668 MUL/U33
*669 MUL/U28
*670 MUL/U19
*671 MUL/U49
*672 MUL/U45
*673 MUL/U40
*674 MUL/U36
*675 MUL/U31
*676 MUL/U22
*677 MUL/data_buffer_reg\[0\]\[6\]
*678 MUL/data_buffer_reg\[0\]\[7\]
*679 MUL/data_buffer_reg\[0\]\[8\]
*680 MUL/data_buffer_reg\[0\]\[9\]
*681 MUL/data_buffer_reg\[0\]\[10\]
*682 MUL/sign_01_reg
*683 MUL/data_buffer_reg\[0\]\[0\]
*684 MUL/data_buffer_reg\[0\]\[1\]
*685 MUL/data_buffer_reg\[0\]\[2\]
*686 MUL/data_buffer_reg\[0\]\[3\]
*687 MUL/data_buffer_reg\[0\]\[4\]
*688 MUL/data_buffer_reg\[0\]\[5\]
*689 MUL/expo_temp_out_reg\[2\]
*690 MUL/expo_temp_out_reg\[3\]
*691 MUL/expo_temp_out_reg\[4\]
*692 MUL/expo_temp_out_reg\[5\]
*693 MUL/expo_temp_in_reg\[5\]
*694 MUL/expo_temp_in_reg\[4\]
*695 MUL/expo_temp_in_reg\[3\]
*696 MUL/expo_temp_in_reg\[2\]
*697 MUL/expo_temp_in_reg\[1\]
*698 MUL/expo_temp_in_reg\[0\]
*699 MUL/expo_temp_out_reg\[1\]
*700 MUL/U16
*701 MUL/U48
*702 MUL/U43
*703 MUL/U39
*704 MUL/U34
*705 MUL/U25
*706 MUL/U13
*707 MUL/U10
*708 MUL/U7
*709 MUL/data_buffer_reg\[0\]\[11\]
*710 MUL/data_buffer_reg\[0\]\[12\]
*711 MUL/data_buffer_reg\[0\]\[13\]
*712 MUL/data_buffer_reg\[0\]\[14\]
*713 MUL/data_buffer_reg\[0\]\[15\]
*714 MUL/frac_02_reg\[0\]
*715 MUL/frac_02_reg\[1\]
*716 MUL/frac_02_reg\[2\]
*717 MUL/frac_02_reg\[3\]
*718 MUL/frac_02_reg\[4\]
*719 MUL/frac_02_reg\[5\]
*720 MUL/frac_02_reg\[6\]
*721 MUL/sign_temp_out_reg
*722 MUL/expo_temp_out_reg\[0\]
*723 MUL/frac_temp_in_reg\[12\]
*724 MUL/frac_temp_in_reg\[11\]
*725 MUL/frac_temp_in_reg\[10\]
*726 MUL/sign_temp_in_reg
*727 MUL/frac_temp_in_reg\[18\]
*728 MUL/frac_temp_in_reg\[19\]
*729 MUL/frac_temp_in_reg\[17\]
*730 MUL/frac_temp_in_reg\[16\]
*731 MUL/frac_temp_in_reg\[15\]
*732 MUL/frac_temp_in_reg\[14\]
*733 MUL/frac_temp_in_reg\[13\]
*734 MUL/frac_01_reg\[9\]
*735 MUL/sign_02_reg
*736 MUL/expo_01_reg\[0\]
*737 MUL/expo_01_reg\[1\]
*738 MUL/expo_01_reg\[2\]
*739 MUL/expo_01_reg\[3\]
*740 MUL/expo_01_reg\[4\]
*741 MUL/expo_02_reg\[0\]
*742 MUL/expo_02_reg\[1\]
*743 MUL/expo_02_reg\[2\]
*744 MUL/expo_02_reg\[3\]
*745 MUL/expo_02_reg\[4\]
*746 MUL/frac_01_reg\[7\]
*747 MUL/frac_01_reg\[8\]
*748 MUL/frac_02_reg\[7\]
*749 MUL/frac_02_reg\[8\]
*750 MUL/frac_02_reg\[9\]
*751 MUL/frac_01_reg\[0\]
*752 MUL/frac_01_reg\[1\]
*753 MUL/frac_01_reg\[2\]
*754 MUL/frac_01_reg\[3\]
*755 MUL/frac_01_reg\[4\]
*756 MUL/frac_01_reg\[5\]
*757 MUL/frac_01_reg\[6\]
*758 ADD/sign_01
*759 ADD/U98
*760 ADD/n33
*761 ADD/N71
*762 ADD/n35
*763 ADD/U42
*764 ADD/U41
*765 ADD/U40
*766 ADD/U39
*767 ADD/U38
*768 ADD/U37
*769 ADD/U97
*770 ADD/U56
*771 ADD/U47
*772 ADD/U46
*773 ADD/U45
*774 ADD/U44
*775 ADD/U43
*776 ADD/n16
*777 ADD/n17
*778 ADD/n15
*779 ADD/U96
*780 ADD/N72
*781 ADD/n5
*782 ADD/N78
*783 ADD/n78
*784 ADD/n79
*785 ADD/n81
*786 ADD/n108
*787 ADD/N75
*788 ADD/n6
*789 ADD/N106
*790 ADD/N103
*791 ADD/N146
*792 MUL/data_buffer_reg\[2\]\[14\]
*793 MUL/data_buffer_reg\[1\]\[14\]
*794 MUL/data_buffer_reg\[2\]\[15\]
*795 MUL/data_buffer_reg\[1\]\[15\]
*796 MUL/data_buffer_reg\[1\]\[11\]
*797 MUL/data_buffer_reg\[2\]\[12\]
*798 MUL/data_buffer_reg\[1\]\[12\]
*799 MUL/data_buffer_reg\[2\]\[13\]
*800 MUL/data_buffer_reg\[1\]\[13\]
*801 MUL/data_buffer_reg\[1\]\[9\]
*802 MUL/data_buffer_reg\[2\]\[10\]
*803 MUL/data_buffer_reg\[1\]\[10\]
*804 MUL/data_buffer_reg\[2\]\[11\]
*805 MUL/data_buffer_reg\[1\]\[6\]
*806 MUL/data_buffer_reg\[1\]\[7\]
*807 MUL/data_buffer_reg\[1\]\[8\]
*808 MUL/data_buffer_reg\[1\]\[3\]
*809 MUL/data_buffer_reg\[1\]\[4\]
*810 MUL/data_buffer_reg\[1\]\[5\]
*811 MUL/data_buffer_reg\[1\]\[1\]
*812 MUL/data_buffer_reg\[1\]\[2\]
*813 MUL/data_buffer_reg\[1\]\[0\]
*814 ADD/frac_temp_in\[9\]
*815 ADD/N145
*816 ADD/frac_temp_in\[8\]
*817 ADD/N144
*818 ADD/frac_temp_in\[7\]
*819 ADD/N143
*820 ADD/frac_temp_in\[6\]
*821 ADD/N142
*822 ADD/frac_temp_in\[5\]
*823 ADD/N141
*824 ADD/frac_temp_in\[4\]
*825 ADD/N140
*826 ADD/frac_temp_in\[3\]
*827 ADD/N139
*828 ADD/frac_temp_in\[2\]
*829 ADD/N138
*830 ADD/frac_temp_in\[1\]
*831 ADD/N137
*832 ADD/frac_temp_in\[0\]
*833 ADD/N39
*834 ADD/N70
*835 ADD/N38
*836 ADD/N130
*837 ADD/expo_temp_in\[0\]
*838 ADD/U55
*839 ADD/N131
*840 ADD/expo_temp_in\[1\]
*841 ADD/N132
*842 ADD/expo_temp_in\[2\]
*843 ADD/N133
*844 ADD/expo_temp_in\[3\]
*845 ADD/N134
*846 ADD/expo_temp_in\[4\]
*847 ADD/N69
*848 ADD/N37
*849 ADD/N68
*850 ADD/N36
*851 ADD/N67
*852 ADD/N35
*853 ADD/N66
*854 ADD/N34
*855 ADD/N65
*856 ADD/N33
*857 ADD/N64
*858 ADD/N32
*859 ADD/N63
*860 ADD/N171
*861 ADD/N172
*862 ADD/N173
*863 ADD/N174
*864 ADD/N31
*865 ADD/N170
*866 ADD/sign_temp
*867 ADD/N62
*868 ADD/N30
*869 ADD/N177
*870 ADD/N178
*871 ADD/N179
*872 ADD/N180
*873 ADD/N181
*874 ADD/N182
*875 ADD/N183
*876 ADD/N184
*877 ADD/N185
*878 ADD/N186
*879 ADD/N187
*880 ADD/N61
*881 data_out_mul\[10\]
*882 ADD/n46
*883 data_out_mul\[11\]
*884 ADD/n47
*885 data_out_mul\[12\]
*886 ADD/n48
*887 data_out_mul\[13\]
*888 ADD/n49
*889 data_out_mul\[14\]
*890 data_out_mul\[15\]
*891 data_out_C\[10\]
*892 data_out_C\[11\]
*893 ADD/expo_02\[1\]
*894 data_out_C\[12\]
*895 ADD/expo_02\[2\]
*896 data_out_C\[13\]
*897 ADD/expo_02\[3\]
*898 data_out_C\[14\]
*899 ADD/expo_02\[4\]
*900 ADD/sub_157/carry\[4\]
*901 ADD/sub_157/carry\[3\]
*902 ADD/sub_157/carry\[2\]
*903 ADD/sub_161/carry\[4\]
*904 ADD/sub_161/carry\[3\]
*905 ADD/sub_161/carry\[2\]
*906 ADD/N147
*907 ADD/n36
*908 ADD/n34
*909 ADD/frac_temp_in\[10\]
*910 ADD/N175
*911 ADD/n32
*912 ADD/sign_02
*913 data_out_C\[15\]
*914 sign
*915 MUL/mult_80/n323
*916 MUL/mult_80/U318
*917 MUL/mult_80/U316
*918 MUL/frac_02\[0\]
*919 MUL/mult_80/U239
*920 MUL/mult_80/U317
*921 MUL/mult_80/U299
*922 MUL/mult_80/U289
*923 MUL/mult_80/U279
*924 MUL/mult_80/U269
*925 MUL/mult_80/U259
*926 MUL/mult_80/U249
*927 MUL/frac_01\[2\]
*928 MUL/mult_80/U231
*929 MUL/mult_80/U230
*930 MUL/mult_80/U238
*931 MUL/mult_80/U237
*932 MUL/mult_80/U236
*933 MUL/mult_80/U235
*934 MUL/mult_80/U234
*935 MUL/mult_80/U233
*936 MUL/mult_80/U232
*937 MUL/mult_80/n324
*938 MUL/frac_01\[1\]
*939 MUL/mult_80/U222
*940 MUL/mult_80/U221
*941 MUL/mult_80/U229
*942 MUL/mult_80/U228
*943 MUL/mult_80/U227
*944 MUL/mult_80/U226
*945 MUL/mult_80/U225
*946 MUL/mult_80/U224
*947 MUL/mult_80/U223
*948 MUL/frac_01\[0\]
*949 MUL/mult_80/U213
*950 MUL/mult_80/U220
*951 MUL/mult_80/U219
*952 MUL/mult_80/U218
*953 MUL/mult_80/U217
*954 MUL/mult_80/U216
*955 MUL/mult_80/U215
*956 MUL/mult_80/U214
*957 MUL/frac_02\[1\]
*958 MUL/mult_80/U300
*959 MUL/mult_80/U290
*960 MUL/mult_80/U280
*961 MUL/mult_80/U270
*962 MUL/mult_80/U260
*963 MUL/mult_80/U250
*964 MUL/mult_80/U240
*965 MUL/mult_80/n162
*966 MUL/mult_80/U91
*967 MUL/mult_80/n322
*968 MUL/mult_80/U315
*969 MUL/mult_80/n158
*970 MUL/mult_80/U89
*971 MUL/mult_80/n160
*972 MUL/mult_80/U90
*973 MUL/mult_80/n321
*974 MUL/mult_80/U314
*975 MUL/mult_80/n152
*976 MUL/mult_80/U86
*977 MUL/mult_80/n157
*978 MUL/mult_80/n320
*979 MUL/mult_80/U313
*980 MUL/mult_80/n144
*981 MUL/mult_80/U82
*982 MUL/mult_80/n151
*983 MUL/mult_80/n319
*984 MUL/mult_80/U312
*985 MUL/mult_80/n134
*986 MUL/mult_80/U77
*987 MUL/mult_80/n143
*988 MUL/mult_80/n318
*989 MUL/mult_80/U311
*990 MUL/mult_80/n122
*991 MUL/mult_80/U71
*992 MUL/mult_80/n133
*993 MUL/mult_80/n317
*994 MUL/mult_80/U310
*995 MUL/mult_80/n108
*996 MUL/mult_80/U64
*997 MUL/mult_80/n121
*998 MUL/mult_80/n316
*999 MUL/mult_80/U309
*1000 MUL/mult_80/n92
*1001 MUL/mult_80/U56
*1002 MUL/mult_80/n107
*1003 MUL/mult_80/n10
*1004 MUL/mult_80/U10
*1005 MUL/mult_80/n163
*1006 MUL/mult_80/U308
*1007 MUL/mult_80/U2
*1008 MUL/frac_01\[9\]
*1009 MUL/mult_80/U307
*1010 MUL/mult_80/U306
*1011 MUL/mult_80/U305
*1012 MUL/mult_80/U304
*1013 MUL/mult_80/U303
*1014 MUL/mult_80/U302
*1015 MUL/mult_80/U301
*1016 MUL/frac_02\[9\]
*1017 MUL/mult_80/U298
*1018 MUL/mult_80/U288
*1019 MUL/mult_80/U278
*1020 MUL/mult_80/U268
*1021 MUL/mult_80/U258
*1022 MUL/mult_80/U248
*1023 MUL/mult_80/n164
*1024 MUL/mult_80/U20
*1025 MUL/frac_02\[8\]
*1026 MUL/mult_80/U297
*1027 MUL/mult_80/U287
*1028 MUL/mult_80/U277
*1029 MUL/mult_80/U267
*1030 MUL/mult_80/U257
*1031 MUL/mult_80/U247
*1032 MUL/mult_80/n165
*1033 MUL/mult_80/U22
*1034 MUL/frac_02\[7\]
*1035 MUL/mult_80/U296
*1036 MUL/mult_80/U286
*1037 MUL/mult_80/U276
*1038 MUL/mult_80/U266
*1039 MUL/mult_80/U256
*1040 MUL/mult_80/U246
*1041 MUL/mult_80/n166
*1042 MUL/mult_80/U25
*1043 MUL/frac_02\[6\]
*1044 MUL/mult_80/U295
*1045 MUL/mult_80/U285
*1046 MUL/mult_80/U275
*1047 MUL/mult_80/U265
*1048 MUL/mult_80/U255
*1049 MUL/mult_80/U245
*1050 MUL/mult_80/n167
*1051 MUL/mult_80/U29
*1052 MUL/frac_02\[5\]
*1053 MUL/mult_80/U294
*1054 MUL/mult_80/U284
*1055 MUL/mult_80/U274
*1056 MUL/mult_80/U264
*1057 MUL/mult_80/U254
*1058 MUL/mult_80/U244
*1059 MUL/mult_80/n168
*1060 MUL/mult_80/U34
*1061 MUL/frac_02\[4\]
*1062 MUL/mult_80/U293
*1063 MUL/mult_80/U283
*1064 MUL/mult_80/U273
*1065 MUL/mult_80/U263
*1066 MUL/mult_80/U253
*1067 MUL/mult_80/U243
*1068 MUL/mult_80/n169
*1069 MUL/mult_80/U40
*1070 MUL/frac_02\[3\]
*1071 MUL/mult_80/U292
*1072 MUL/mult_80/U282
*1073 MUL/mult_80/U272
*1074 MUL/mult_80/U262
*1075 MUL/mult_80/U252
*1076 MUL/mult_80/U242
*1077 MUL/mult_80/n170
*1078 MUL/mult_80/U47
*1079 MUL/frac_02\[2\]
*1080 MUL/mult_80/U291
*1081 MUL/mult_80/U281
*1082 MUL/mult_80/U271
*1083 MUL/mult_80/U261
*1084 MUL/mult_80/U251
*1085 MUL/mult_80/U241
*1086 MUL/mult_80/n171
*1087 MUL/mult_80/U55
*1088 MUL/mult_80/n172
*1089 MUL/mult_80/U63
*1090 MUL/mult_80/n173
*1091 MUL/frac_01\[8\]
*1092 MUL/mult_80/n174
*1093 MUL/mult_80/n175
*1094 MUL/mult_80/n176
*1095 MUL/mult_80/n177
*1096 MUL/mult_80/n178
*1097 MUL/mult_80/n179
*1098 MUL/mult_80/n180
*1099 MUL/mult_80/n181
*1100 MUL/mult_80/n182
*1101 MUL/mult_80/U70
*1102 MUL/mult_80/n183
*1103 MUL/frac_01\[7\]
*1104 MUL/mult_80/n184
*1105 MUL/mult_80/U24
*1106 MUL/mult_80/n185
*1107 MUL/mult_80/U28
*1108 MUL/mult_80/n186
*1109 MUL/mult_80/U33
*1110 MUL/mult_80/n187
*1111 MUL/mult_80/U39
*1112 MUL/mult_80/n188
*1113 MUL/mult_80/U46
*1114 MUL/mult_80/n189
*1115 MUL/mult_80/U53
*1116 MUL/mult_80/n190
*1117 MUL/mult_80/U62
*1118 MUL/mult_80/n191
*1119 MUL/mult_80/n192
*1120 MUL/mult_80/U76
*1121 MUL/mult_80/n193
*1122 MUL/frac_01\[6\]
*1123 MUL/mult_80/n194
*1124 MUL/mult_80/n195
*1125 MUL/mult_80/n196
*1126 MUL/mult_80/U38
*1127 MUL/mult_80/n197
*1128 MUL/mult_80/n198
*1129 MUL/mult_80/n199
*1130 MUL/mult_80/U61
*1131 MUL/mult_80/n200
*1132 MUL/mult_80/U69
*1133 MUL/mult_80/n201
*1134 MUL/mult_80/n202
*1135 MUL/mult_80/U81
*1136 MUL/mult_80/n203
*1137 MUL/frac_01\[5\]
*1138 MUL/mult_80/n204
*1139 MUL/mult_80/n205
*1140 MUL/mult_80/n206
*1141 MUL/mult_80/U45
*1142 MUL/mult_80/n207
*1143 MUL/mult_80/U54
*1144 MUL/mult_80/n208
*1145 MUL/mult_80/n209
*1146 MUL/mult_80/U68
*1147 MUL/mult_80/n210
*1148 MUL/mult_80/U75
*1149 MUL/mult_80/n211
*1150 MUL/mult_80/n212
*1151 MUL/mult_80/U85
*1152 MUL/mult_80/n213
*1153 MUL/frac_01\[4\]
*1154 MUL/mult_80/n214
*1155 MUL/mult_80/n215
*1156 MUL/mult_80/n216
*1157 MUL/mult_80/U52
*1158 MUL/mult_80/n217
*1159 MUL/mult_80/n218
*1160 MUL/mult_80/n219
*1161 MUL/mult_80/U74
*1162 MUL/mult_80/n220
*1163 MUL/mult_80/U80
*1164 MUL/mult_80/n221
*1165 MUL/mult_80/n222
*1166 MUL/mult_80/U88
*1167 MUL/mult_80/n223
*1168 MUL/frac_01\[3\]
*1169 MUL/mult_80/n224
*1170 MUL/mult_80/n225
*1171 MUL/mult_80/n226
*1172 MUL/mult_80/U60
*1173 MUL/mult_80/n227
*1174 MUL/mult_80/U67
*1175 MUL/mult_80/n228
*1176 MUL/mult_80/n229
*1177 MUL/mult_80/U79
*1178 MUL/mult_80/n230
*1179 MUL/mult_80/U84
*1180 MUL/mult_80/n231
*1181 MUL/mult_80/n232
*1182 MUL/mult_80/n233
*1183 MUL/mult_80/n234
*1184 MUL/mult_80/n235
*1185 MUL/mult_80/n236
*1186 MUL/mult_80/n237
*1187 MUL/mult_80/n238
*1188 MUL/mult_80/n239
*1189 MUL/mult_80/n240
*1190 MUL/mult_80/U87
*1191 MUL/mult_80/n241
*1192 MUL/mult_80/n243
*1193 MUL/mult_80/n244
*1194 MUL/mult_80/n245
*1195 MUL/mult_80/n246
*1196 MUL/mult_80/n247
*1197 MUL/mult_80/n248
*1198 MUL/mult_80/U83
*1199 MUL/mult_80/n249
*1200 MUL/mult_80/n250
*1201 MUL/mult_80/n251
*1202 MUL/mult_80/n253
*1203 MUL/mult_80/n254
*1204 MUL/mult_80/n255
*1205 MUL/mult_80/n256
*1206 MUL/mult_80/n257
*1207 MUL/mult_80/n258
*1208 MUL/mult_80/n259
*1209 MUL/mult_80/n260
*1210 MUL/mult_80/n161
*1211 MUL/mult_80/n159
*1212 MUL/mult_80/n156
*1213 MUL/mult_80/n155
*1214 MUL/mult_80/n153
*1215 MUL/mult_80/n154
*1216 MUL/mult_80/n150
*1217 MUL/mult_80/n149
*1218 MUL/mult_80/n147
*1219 MUL/mult_80/U78
*1220 MUL/mult_80/n148
*1221 MUL/mult_80/n145
*1222 MUL/mult_80/n146
*1223 MUL/mult_80/n142
*1224 MUL/mult_80/n141
*1225 MUL/mult_80/U73
*1226 MUL/mult_80/n139
*1227 MUL/mult_80/n140
*1228 MUL/mult_80/n137
*1229 MUL/mult_80/U72
*1230 MUL/mult_80/n138
*1231 MUL/mult_80/n135
*1232 MUL/mult_80/n136
*1233 MUL/mult_80/n132
*1234 MUL/mult_80/n131
*1235 MUL/mult_80/n129
*1236 MUL/mult_80/U66
*1237 MUL/mult_80/n130
*1238 MUL/mult_80/n127
*1239 MUL/mult_80/n128
*1240 MUL/mult_80/n125
*1241 MUL/mult_80/U65
*1242 MUL/mult_80/n126
*1243 MUL/mult_80/n123
*1244 MUL/mult_80/n124
*1245 MUL/mult_80/n120
*1246 MUL/mult_80/n119
*1247 MUL/mult_80/n117
*1248 MUL/mult_80/U59
*1249 MUL/mult_80/n118
*1250 MUL/mult_80/n115
*1251 MUL/mult_80/n116
*1252 MUL/mult_80/n113
*1253 MUL/mult_80/U58
*1254 MUL/mult_80/n114
*1255 MUL/mult_80/n111
*1256 MUL/mult_80/U57
*1257 MUL/mult_80/n112
*1258 MUL/mult_80/n109
*1259 MUL/mult_80/n110
*1260 MUL/mult_80/n106
*1261 MUL/mult_80/n105
*1262 MUL/mult_80/n103
*1263 MUL/mult_80/U51
*1264 MUL/mult_80/n104
*1265 MUL/mult_80/n101
*1266 MUL/mult_80/n102
*1267 MUL/mult_80/n99
*1268 MUL/mult_80/U50
*1269 MUL/mult_80/n100
*1270 MUL/mult_80/n97
*1271 MUL/mult_80/n98
*1272 MUL/mult_80/n95
*1273 MUL/mult_80/U49
*1274 MUL/mult_80/n96
*1275 MUL/mult_80/n93
*1276 MUL/mult_80/U48
*1277 MUL/mult_80/n94
*1278 MUL/mult_80/n91
*1279 MUL/mult_80/n90
*1280 MUL/mult_80/n89
*1281 MUL/mult_80/n87
*1282 MUL/mult_80/U44
*1283 MUL/mult_80/n88
*1284 MUL/mult_80/n85
*1285 MUL/mult_80/n86
*1286 MUL/mult_80/n83
*1287 MUL/mult_80/U43
*1288 MUL/mult_80/n84
*1289 MUL/mult_80/n81
*1290 MUL/mult_80/U42
*1291 MUL/mult_80/n82
*1292 MUL/mult_80/n79
*1293 MUL/mult_80/n80
*1294 MUL/mult_80/n77
*1295 MUL/mult_80/U41
*1296 MUL/mult_80/n78
*1297 MUL/mult_80/n75
*1298 MUL/mult_80/U9
*1299 MUL/mult_80/n76
*1300 MUL/mult_80/n73
*1301 MUL/mult_80/n74
*1302 MUL/mult_80/n71
*1303 MUL/mult_80/n72
*1304 MUL/mult_80/n69
*1305 MUL/mult_80/U37
*1306 MUL/mult_80/n70
*1307 MUL/mult_80/n67
*1308 MUL/mult_80/U36
*1309 MUL/mult_80/n68
*1310 MUL/mult_80/n65
*1311 MUL/mult_80/n66
*1312 MUL/mult_80/n63
*1313 MUL/mult_80/U35
*1314 MUL/mult_80/n64
*1315 MUL/mult_80/n61
*1316 MUL/mult_80/U8
*1317 MUL/mult_80/n62
*1318 MUL/mult_80/n59
*1319 MUL/mult_80/U32
*1320 MUL/mult_80/n60
*1321 MUL/mult_80/n57
*1322 MUL/mult_80/n58
*1323 MUL/mult_80/n55
*1324 MUL/mult_80/U31
*1325 MUL/mult_80/n56
*1326 MUL/mult_80/n53
*1327 MUL/mult_80/n54
*1328 MUL/mult_80/n51
*1329 MUL/mult_80/U30
*1330 MUL/mult_80/n52
*1331 MUL/mult_80/n49
*1332 MUL/mult_80/U7
*1333 MUL/mult_80/n50
*1334 MUL/mult_80/n47
*1335 MUL/mult_80/n48
*1336 MUL/mult_80/n45
*1337 MUL/mult_80/U27
*1338 MUL/mult_80/n46
*1339 MUL/mult_80/n43
*1340 MUL/mult_80/n44
*1341 MUL/mult_80/n41
*1342 MUL/mult_80/U26
*1343 MUL/mult_80/n42
*1344 MUL/mult_80/n39
*1345 MUL/mult_80/U6
*1346 MUL/mult_80/n40
*1347 MUL/mult_80/n37
*1348 MUL/mult_80/n38
*1349 MUL/mult_80/n35
*1350 MUL/mult_80/U23
*1351 MUL/mult_80/n36
*1352 MUL/mult_80/n33
*1353 MUL/mult_80/n34
*1354 MUL/mult_80/n31
*1355 MUL/mult_80/U5
*1356 MUL/mult_80/n32
*1357 MUL/mult_80/n29
*1358 MUL/mult_80/U21
*1359 MUL/mult_80/n30
*1360 MUL/mult_80/n27
*1361 MUL/mult_80/n28
*1362 MUL/mult_80/n25
*1363 MUL/mult_80/U4
*1364 MUL/mult_80/n26
*1365 MUL/mult_80/n23
*1366 MUL/mult_80/n24
*1367 MUL/mult_80/n21
*1368 MUL/mult_80/U3
*1369 MUL/mult_80/n22
*1370 MUL/mult_80/n19
*1371 MUL/mult_80/n20
*1372 MUL/mult_80/n9
*1373 MUL/N19
*1374 MUL/U61
*1375 MUL/mult_80/n8
*1376 MUL/N20
*1377 MUL/U60
*1378 MUL/mult_80/n7
*1379 MUL/N21
*1380 MUL/U59
*1381 MUL/mult_80/n6
*1382 MUL/N22
*1383 MUL/U58
*1384 MUL/mult_80/n5
*1385 MUL/N23
*1386 MUL/U57
*1387 MUL/mult_80/n4
*1388 MUL/N24
*1389 MUL/U56
*1390 MUL/mult_80/n3
*1391 MUL/N25
*1392 MUL/U55
*1393 MUL/mult_80/n2
*1394 MUL/N26
*1395 MUL/U54
*1396 MUL/N28
*1397 MUL/U52
*1398 MUL/N27
*1399 MUL/U53
*1400 MUL/add_0_root_sub_0_root_sub_79/carry\[1\]
*1401 MUL/add_0_root_sub_0_root_sub_79/U5
*1402 MUL/add_0_root_sub_0_root_sub_79/U1_1
*1403 MUL/expo_01\[0\]
*1404 MUL/add_0_root_sub_0_root_sub_79/U4
*1405 MUL/U74
*1406 MUL/n39
*1407 MUL/N12
*1408 MUL/U68
*1409 MUL/add_0_root_sub_0_root_sub_79/carry\[5\]
*1410 MUL/add_0_root_sub_0_root_sub_79/U3
*1411 MUL/add_0_root_sub_0_root_sub_79/U1
*1412 MUL/add_0_root_sub_0_root_sub_79/U1_4
*1413 MUL/n1
*1414 MUL/add_0_root_sub_0_root_sub_79/U2
*1415 MUL/U5
*1416 MUL/add_0_root_sub_0_root_sub_79/n1
*1417 MUL/N17
*1418 MUL/U63
*1419 MUL/expo_01\[1\]
*1420 MUL/add_0_root_sub_0_root_sub_79/carry\[2\]
*1421 MUL/add_0_root_sub_0_root_sub_79/U1_2
*1422 MUL/sub_1_root_sub_0_root_sub_79\/DIFF\[1\]
*1423 MUL/U81
*1424 MUL/N13
*1425 MUL/U67
*1426 MUL/expo_01\[2\]
*1427 MUL/U75
*1428 MUL/add_0_root_sub_0_root_sub_79/carry\[3\]
*1429 MUL/add_0_root_sub_0_root_sub_79/U1_3
*1430 MUL/sub_1_root_sub_0_root_sub_79\/DIFF\[2\]
*1431 MUL/U79
*1432 MUL/N14
*1433 MUL/U66
*1434 MUL/expo_01\[3\]
*1435 MUL/add_0_root_sub_0_root_sub_79/carry\[4\]